Ident  = #Delft3D-FLOW 3.59.01.57433#
Commnt =                  
Runtxt = #Lake Aegeri#
         #Developed for the Alplakes project#
Filcco = #aegeri_grid.grd#
Anglat =  4.7120000e+001
Grdang =  0.0000000e+000
Filgrd = #aegeri_grid_enclosure.enc#
MNKmax = 39 95 108
Thick  = 2.4176790000e+00
         2.4145510000e+00
         2.2995720000e+00
         2.1900690000e+00
         2.0857800000e+00
         1.9864570000e+00
         1.8918640000e+00
         1.8017750000e+00
         1.7159760000e+00
         1.6342630000e+00
         1.5564410000e+00
         1.4823250000e+00
         1.4117380000e+00
         1.3445120000e+00
         1.2804880000e+00
         1.2195120000e+00
         1.2195120000e+00
         1.2195120000e+00
         1.2195120000e+00
         1.2195120000e+00
         1.2195120000e+00
         1.2195120000e+00
         1.2195120000e+00
         1.2195120000e+00
         1.2195120000e+00
         1.2195120000e+00
         1.2195120000e+00
         1.2195120000e+00
         1.2195120000e+00
         1.2195120000e+00
         1.2195120000e+00
         1.2195120000e+00
         1.2195120000e+00
         1.2195120000e+00
         1.2195120000e+00
         1.2195120000e+00
         1.2195120000e+00
         1.2195120000e+00
         1.2195120000e+00
         1.2195120000e+00
         1.2195120000e+00
         1.2195120000e+00
         1.2195120000e+00
         1.2195120000e+00
         1.2072750000e+00
         1.1497860000e+00
         1.0950340000e+00
         1.0428900000e+00
         9.9322800000e-01
         9.4593200000e-01
         9.0088700000e-01
         8.5798800000e-01
         8.1713100000e-01
         7.7822000000e-01
         7.4116200000e-01
         7.0586900000e-01
         6.7225600000e-01
         6.4024400000e-01
         6.0975600000e-01
         6.0975600000e-01
         6.0975600000e-01
         6.0975600000e-01
         6.0975600000e-01
         6.0975600000e-01
         6.0975600000e-01
         6.0975600000e-01
         6.0975600000e-01
         6.0975600000e-01
         6.0975600000e-01
         6.0975600000e-01
         6.0975600000e-01
         6.0975600000e-01
         6.0975600000e-01
         6.0975600000e-01
         6.0975600000e-01
         6.0975600000e-01
         6.0975600000e-01
         6.0975600000e-01
         6.0975600000e-01
         6.0975600000e-01
         6.0975600000e-01
         6.0975600000e-01
         6.0975600000e-01
         5.7489300000e-01
         5.4751700000e-01
         5.2144500000e-01
         4.9661400000e-01
         4.7296600000e-01
         4.5044400000e-01
         4.2899400000e-01
         4.0856600000e-01
         3.8911000000e-01
         3.7058100000e-01
         3.5293400000e-01
         3.3612800000e-01
         3.2012200000e-01
         3.0487800000e-01
         3.0487800000e-01
         3.0487800000e-01
         3.0487800000e-01
         3.0487800000e-01
         3.0487800000e-01
         3.0487800000e-01
         3.0487800000e-01
         3.0487800000e-01
         3.0487800000e-01
         3.0487800000e-01
         3.0487800000e-01
Commnt =                  
Fildep = #aegeri_depths.dep#
Commnt =                  
Commnt =                 no. dry points: 0
Commnt =                 no. thin dams: 0
Commnt =                  
Itdate = #2008-03-01#
Tunit  = #M#
Tstart =  6.60000e+02
Tstop  =  2.54040e+05
Dt     = 1
Tzone  = 0
Commnt =                  
Sub1   = # TW #
Sub2   = #   #
Commnt =                  
Wnsvwp = #Y#
Wndint = #Y#
Commnt =
Restid =  #Simulation_Web_rst.000000#
Zeta0  =  0.0000000e+000
T0     = 4.2690033368e+00
         4.2710087122e+00
         4.2729650733e+00
         4.2748282743e+00
         4.2766027516e+00
         4.2782927300e+00
         4.2799022332e+00
         4.2800000000e+00
         4.2800000000e+00
         4.2800000000e+00
         4.2800000000e+00
         4.2800000000e+00
         4.2800000000e+00
         4.2800000000e+00
         4.2796952058e+00
         4.2786577058e+00
         4.2776455109e+00
         4.2766333159e+00
         4.2756211209e+00
         4.2746089260e+00
         4.2735967310e+00
         4.2725845361e+00
         4.2715723411e+00
         4.2705601461e+00
         4.2700000000e+00
         4.2700000000e+00
         4.2700000000e+00
         4.2700000000e+00
         4.2700000000e+00
         4.2700000000e+00
         4.2700000000e+00
         4.2700000000e+00
         4.2700000000e+00
         4.2700000000e+00
         4.2694260016e+00
         4.2684138066e+00
         4.2674016117e+00
         4.2663894167e+00
         4.2653772217e+00
         4.2643650268e+00
         4.2633528318e+00
         4.2623406369e+00
         4.2613284419e+00
         4.2603162469e+00
         4.2600000000e+00
         4.2600000000e+00
         4.2600000000e+00
         4.2600000000e+00
         4.2600000000e+00
         4.2600000000e+00
         4.2600000000e+00
         4.2600000000e+00
         4.2600000000e+00
         4.2600000000e+00
         4.2600000000e+00
         4.2600000000e+00
         4.2600000000e+00
         4.2600000000e+00
         4.2600000000e+00
         4.2600000000e+00
         4.2600000000e+00
         4.2600000000e+00
         4.2600000000e+00
         4.2600000000e+00
         4.2600000000e+00
         4.2600000000e+00
         4.2600000000e+00
         4.2600000000e+00
         4.2600000000e+00
         4.2600000000e+00
         4.2600000000e+00
         4.2600000000e+00
         4.2617720906e+00
         4.2637964806e+00
         4.2658208705e+00
         4.2678452604e+00
         4.2698696503e+00
         4.2700000000e+00
         4.2700000000e+00
         4.2700000000e+00
         4.2700000000e+00
         4.2700000000e+00
         4.2720159898e+00
         4.2739825072e+00
         4.2758457078e+00
         4.2776201847e+00
         4.2793101626e+00
         4.2800000000e+00
         4.2800000000e+00
         4.2800000000e+00
         4.2800000000e+00
         4.2800000000e+00
         4.2800000000e+00
         4.2800000000e+00
         4.2800000000e+00
         4.2800000000e+00
         4.2800000000e+00
         4.2800000000e+00
         4.2800000000e+00
         4.2800000000e+00
         4.2800000000e+00
         4.2800000000e+00
         4.2800000000e+00
         4.2800000000e+00
         4.2800000000e+00
         4.2800000000e+00
         4.2800000000e+00
         4.2800000000e+00
Commnt =                  
Commnt =                 no. open boundaries: 0
Commnt =                  
Ag     =  9.8100000e+000
Rhow   =  1.0000000e+003
Tempw  =  1.5000000e+001
Salw   =  2.0000000e-001
Wstres =  1.1004779e-03 5.0000000e-01 2.5010860e-04 4.5000000e+00 5.0021721e-04 1.0000000e+01
Rhoa   =  1.0000000e+000
Equili = #N#
Tkemod = #K-epsilon   #
Ktemp  = 5
Temint = #Y#
Commnt =                  
Roumet = #C#
Ccofu  =  6.0000000e+001
Ccofv  =  6.0000000e+001
Xlo    =  5.4497479e-03
cFrCon =  1.4287829e-01
Vicouv =  2.6301156e+00
Dicouv =  3.7573080e+00
Htur2d = #N#
Vicoww =  1.0000000e-006
Dicoww =  1.0000000e-009
Irov   = 0
Commnt =                  
Iter   =      2
Dryflp = #YES#
Dpsopt = #MAX#
Dpuopt = #MIN#
Dryflc =  1.0000000e-001
Dco    = -9.9900000e+002
Forfuv = #Y#
Forfww = #Y#
Sigcor = #N#
Trasol = #Cyclic-method#
Momsol = #Cyclic#
Commnt =                  
Commnt =                 no. discharges: 0
Commnt =                 no. observation points: 1
Filsta = #aegeri_observation_points.obs#
Commnt =                 no. drogues: 0
Commnt =                  
Commnt =                  
Commnt =                 no. cross sections: 0
Commnt =                  
SMhydr = #YYYYY#     
SMderv = #YYYYYY#    
SMproc = #YYYYYYYYYY#
PMhydr = #YYYYYY#    
PMderv = #YYY#       
PMproc = #YYYYYYYYYY#
SHhydr = #YYYY#      
SHderv = #YYYYY#     
SHproc = #YYYYYYYYYY#
SHflux = #YYYY#      
PHhydr = #YYYYYY#    
PHderv = #YYY#       
PHproc = #YYYYYYYYYY#
PHflux = #YYYY#      
Flmap  =  7.4908800e+006 180  7.4988000e+006
Flhis  =  7.4908800e+006 180  7.4988000e+006
Flpp   =  0.00000e+00  0.00000e+00  0.00000e+00
Flrst  = 10080
Commnt =                  
Online = #N#
Zmodel = #Y#
Zbot   = -82
Ztop   = +1
AirOut = #Y#
HeaOut = #Y#
Filscc= #Secchi.scc#
Filwp  = #Pressure.amp#
Filwu  = #WindU.amu#
Filwv  = #WindV.amv#
Filws  = #ShortwaveFlux.ams#
Filwt  = #Temperature.amt#
Filwr  = #RelativeHumidity.amr#
Filwc  = #CloudCoverage.amc#
Anglon = 8.6
Wslake = 1
sdlake = 1
Commnt =               
ncFormat = 4
FlNcdf = #map#
