*
* Deltares, Delft3D-RGFGRID Version 4.18.01.18383, Sep  7 2011, 14:23:22
* File creation date: 2016-10-05, 11:21:37
*
Coordinate System = Cartesian
      63     223
 0 0 0
 ETA=    1   0.00000000000000000E+00   0.00000000000000000E+00   0.00000000000000000E+00   0.00000000000000000E+00   0.00000000000000000E+00
             0.00000000000000000E+00   0.00000000000000000E+00   0.00000000000000000E+00   0.00000000000000000E+00   0.00000000000000000E+00
             0.00000000000000000E+00   0.00000000000000000E+00   0.00000000000000000E+00   0.00000000000000000E+00   0.00000000000000000E+00
             0.00000000000000000E+00   0.00000000000000000E+00   0.00000000000000000E+00   0.00000000000000000E+00   0.00000000000000000E+00
             0.00000000000000000E+00   0.00000000000000000E+00   0.00000000000000000E+00   0.00000000000000000E+00   0.00000000000000000E+00
             0.00000000000000000E+00   0.00000000000000000E+00   6.19936918197389808E+05   6.20259061776202288E+05   6.20582038567850133E+05
             6.20907327504141838E+05   6.21235702688154997E+05   6.21567673735091346E+05   0.00000000000000000E+00   0.00000000000000000E+00
             0.00000000000000000E+00   0.00000000000000000E+00   0.00000000000000000E+00   0.00000000000000000E+00   0.00000000000000000E+00
             0.00000000000000000E+00   0.00000000000000000E+00   0.00000000000000000E+00   0.00000000000000000E+00   0.00000000000000000E+00
             0.00000000000000000E+00   0.00000000000000000E+00   0.00000000000000000E+00   0.00000000000000000E+00   0.00000000000000000E+00
             0.00000000000000000E+00   0.00000000000000000E+00   0.00000000000000000E+00   0.00000000000000000E+00   0.00000000000000000E+00
             0.00000000000000000E+00   0.00000000000000000E+00   0.00000000000000000E+00   0.00000000000000000E+00   0.00000000000000000E+00
             0.00000000000000000E+00   0.00000000000000000E+00   0.00000000000000000E+00
 ETA=    2   0.00000000000000000E+00   0.00000000000000000E+00   0.00000000000000000E+00   0.00000000000000000E+00   0.00000000000000000E+00
             0.00000000000000000E+00   0.00000000000000000E+00   0.00000000000000000E+00   0.00000000000000000E+00   0.00000000000000000E+00
             0.00000000000000000E+00   0.00000000000000000E+00   0.00000000000000000E+00   0.00000000000000000E+00   0.00000000000000000E+00
             0.00000000000000000E+00   0.00000000000000000E+00   6.17192820319424383E+05   6.17487225413002074E+05   6.17781122476050397E+05
             6.18073887909822515E+05   6.18367481678838842E+05   6.18664293542641448E+05   6.18963750091933296E+05   0.00000000000000000E+00
             6.19571526172198239E+05   6.19883338144524721E+05   6.20198922445843345E+05   6.20515782997727394E+05   6.20833956901473575E+05
             6.21154617049927474E+05   6.21478641686467687E+05   6.21806647483683773E+05   6.22139121937310905E+05   6.22474091596427606E+05
             0.00000000000000000E+00   0.00000000000000000E+00   0.00000000000000000E+00   0.00000000000000000E+00   0.00000000000000000E+00
             0.00000000000000000E+00   0.00000000000000000E+00   0.00000000000000000E+00   0.00000000000000000E+00   0.00000000000000000E+00
             0.00000000000000000E+00   0.00000000000000000E+00   0.00000000000000000E+00   0.00000000000000000E+00   0.00000000000000000E+00
             0.00000000000000000E+00   0.00000000000000000E+00   0.00000000000000000E+00   0.00000000000000000E+00   0.00000000000000000E+00
             0.00000000000000000E+00   0.00000000000000000E+00   0.00000000000000000E+00   0.00000000000000000E+00   0.00000000000000000E+00
             0.00000000000000000E+00   0.00000000000000000E+00   0.00000000000000000E+00
 ETA=    3   0.00000000000000000E+00   0.00000000000000000E+00   0.00000000000000000E+00   0.00000000000000000E+00   0.00000000000000000E+00
             0.00000000000000000E+00   0.00000000000000000E+00   0.00000000000000000E+00   0.00000000000000000E+00   0.00000000000000000E+00
             0.00000000000000000E+00   0.00000000000000000E+00   0.00000000000000000E+00   0.00000000000000000E+00   0.00000000000000000E+00
             0.00000000000000000E+00   0.00000000000000000E+00   6.17460334466251777E+05   6.17755917851321166E+05   6.18049374605761608E+05
             6.18342340519808815E+05   6.18636983078536927E+05   6.18935428912037984E+05   6.19236827770503704E+05   6.19539657921872451E+05
             6.19844152580215828E+05   6.20151180980388424E+05   6.20460926694296882E+05   6.20772504219252500E+05   6.21085875235097017E+05
             6.21401906595713110E+05   6.21721580684780376E+05   6.22045621232276200E+05   6.22373604540664470E+05   6.22704773902929388E+05
             6.23038335898605525E+05   6.23373509838149766E+05   6.23708654035835760E+05   0.00000000000000000E+00   0.00000000000000000E+00
             0.00000000000000000E+00   0.00000000000000000E+00   0.00000000000000000E+00   0.00000000000000000E+00   0.00000000000000000E+00
             0.00000000000000000E+00   0.00000000000000000E+00   0.00000000000000000E+00   0.00000000000000000E+00   0.00000000000000000E+00
             0.00000000000000000E+00   0.00000000000000000E+00   0.00000000000000000E+00   0.00000000000000000E+00   0.00000000000000000E+00
             0.00000000000000000E+00   0.00000000000000000E+00   0.00000000000000000E+00   0.00000000000000000E+00   0.00000000000000000E+00
             0.00000000000000000E+00   0.00000000000000000E+00   0.00000000000000000E+00
 ETA=    4   0.00000000000000000E+00   0.00000000000000000E+00   0.00000000000000000E+00   0.00000000000000000E+00   0.00000000000000000E+00
             0.00000000000000000E+00   0.00000000000000000E+00   0.00000000000000000E+00   0.00000000000000000E+00   0.00000000000000000E+00
             0.00000000000000000E+00   0.00000000000000000E+00   0.00000000000000000E+00   0.00000000000000000E+00   0.00000000000000000E+00
             0.00000000000000000E+00   6.17425594887062791E+05   6.17727312429505400E+05   6.18023466122430982E+05   6.18316889033894171E+05
             6.18609935184066766E+05   6.18904890423881123E+05   6.19203665129647357E+05   6.19505151968547376E+05   6.19807412306097103E+05
             6.20110135759329423E+05   6.20413928372122464E+05   6.20719505371972802E+05   6.21026772403269657E+05   6.21335947072683251E+05
             6.21647857046037796E+05   6.21963553129834123E+05   6.22283816840460757E+05   6.22608087144018034E+05   6.22935456209431170E+05
             6.23265193732013460E+05   6.23596750495038694E+05   6.23928927607411053E+05   6.24260777100690641E+05   0.00000000000000000E+00
             0.00000000000000000E+00   0.00000000000000000E+00   0.00000000000000000E+00   0.00000000000000000E+00   0.00000000000000000E+00
             0.00000000000000000E+00   0.00000000000000000E+00   0.00000000000000000E+00   0.00000000000000000E+00   0.00000000000000000E+00
             0.00000000000000000E+00   0.00000000000000000E+00   0.00000000000000000E+00   0.00000000000000000E+00   0.00000000000000000E+00
             0.00000000000000000E+00   0.00000000000000000E+00   0.00000000000000000E+00   0.00000000000000000E+00   0.00000000000000000E+00
             0.00000000000000000E+00   0.00000000000000000E+00   0.00000000000000000E+00
 ETA=    5   0.00000000000000000E+00   0.00000000000000000E+00   0.00000000000000000E+00   0.00000000000000000E+00   0.00000000000000000E+00
             0.00000000000000000E+00   0.00000000000000000E+00   0.00000000000000000E+00   0.00000000000000000E+00   0.00000000000000000E+00
             0.00000000000000000E+00   0.00000000000000000E+00   0.00000000000000000E+00   0.00000000000000000E+00   0.00000000000000000E+00
             0.00000000000000000E+00   6.17692650934029254E+05   6.17994037446547765E+05   6.18290090820713551E+05   6.18583104972598027E+05
             6.18875749726322712E+05   6.19170308484418900E+05   6.19468477167000994E+05   6.19769009195922641E+05   6.20069891477273311E+05
             6.20370714430863271E+05   6.20671888346545980E+05   6.20974189716700697E+05   6.21277915599167813E+05   6.21583498771909624E+05
             6.21891783758681966E+05   6.22203903310183203E+05   6.22520702749323216E+05   6.22841522524664062E+05   6.23165414221039158E+05
             6.23491852613601019E+05   6.23820445384794963E+05   6.24150054366520373E+05   6.24479953975862591E+05   0.00000000000000000E+00
             0.00000000000000000E+00   0.00000000000000000E+00   0.00000000000000000E+00   0.00000000000000000E+00   0.00000000000000000E+00
             0.00000000000000000E+00   0.00000000000000000E+00   0.00000000000000000E+00   0.00000000000000000E+00   0.00000000000000000E+00
             0.00000000000000000E+00   0.00000000000000000E+00   0.00000000000000000E+00   0.00000000000000000E+00   0.00000000000000000E+00
             0.00000000000000000E+00   0.00000000000000000E+00   0.00000000000000000E+00   0.00000000000000000E+00   0.00000000000000000E+00
             0.00000000000000000E+00   0.00000000000000000E+00   0.00000000000000000E+00
 ETA=    6   0.00000000000000000E+00   0.00000000000000000E+00   0.00000000000000000E+00   0.00000000000000000E+00   0.00000000000000000E+00
             0.00000000000000000E+00   0.00000000000000000E+00   0.00000000000000000E+00   0.00000000000000000E+00   0.00000000000000000E+00
             0.00000000000000000E+00   0.00000000000000000E+00   0.00000000000000000E+00   0.00000000000000000E+00   0.00000000000000000E+00
             0.00000000000000000E+00   6.17955461761649582E+05   6.18257721220756066E+05   6.18553746113448753E+05   6.18846302625478711E+05
             6.19138366024617804E+05   6.19431764217090211E+05   6.19728039629859850E+05   6.20026183607843821E+05   6.20325042925663060E+05
             6.20624118597879191E+05   6.20923524828269728E+05   6.21223724136316916E+05   6.21525208020289196E+05   6.21828756685614353E+05
             6.22135165677219513E+05   6.22445053992348025E+05   6.22758818223454989E+05   6.23076255635641632E+05   6.23396873480996583E+05
             6.23720187584686792E+05   6.24045705400642357E+05   6.24372779825136531E+05   6.24700908984644804E+05   0.00000000000000000E+00
             0.00000000000000000E+00   0.00000000000000000E+00   0.00000000000000000E+00   0.00000000000000000E+00   0.00000000000000000E+00
             0.00000000000000000E+00   0.00000000000000000E+00   0.00000000000000000E+00   0.00000000000000000E+00   0.00000000000000000E+00
             0.00000000000000000E+00   0.00000000000000000E+00   0.00000000000000000E+00   0.00000000000000000E+00   0.00000000000000000E+00
             0.00000000000000000E+00   0.00000000000000000E+00   0.00000000000000000E+00   0.00000000000000000E+00   0.00000000000000000E+00
             0.00000000000000000E+00   0.00000000000000000E+00   0.00000000000000000E+00
 ETA=    7   0.00000000000000000E+00   0.00000000000000000E+00   0.00000000000000000E+00   0.00000000000000000E+00   0.00000000000000000E+00
             0.00000000000000000E+00   0.00000000000000000E+00   0.00000000000000000E+00   0.00000000000000000E+00   0.00000000000000000E+00
             0.00000000000000000E+00   0.00000000000000000E+00   0.00000000000000000E+00   0.00000000000000000E+00   0.00000000000000000E+00
             0.00000000000000000E+00   6.18216713200552855E+05   6.18518293439010624E+05   6.18813852025028667E+05   6.19105941340625519E+05
             6.19397434937575017E+05   6.19689906526089530E+05   6.19984785508029163E+05   6.20281210790763260E+05   6.20578285353437765E+05
             6.20875530380884535E+05   6.21172973125496064E+05   6.21470994722926989E+05   6.21770142779125483E+05   6.22071320460134419E+05
             6.22375433677952038E+05   6.22682871816799743E+05   6.22993899867305649E+05   6.23308459889092250E+05   6.23626249251787667E+05
             6.23946874206902459E+05   6.24269912216754863E+05   6.24594914831604110E+05   6.24921354846487870E+05   0.00000000000000000E+00
             0.00000000000000000E+00   0.00000000000000000E+00   0.00000000000000000E+00   0.00000000000000000E+00   0.00000000000000000E+00
             0.00000000000000000E+00   0.00000000000000000E+00   0.00000000000000000E+00   0.00000000000000000E+00   0.00000000000000000E+00
             0.00000000000000000E+00   0.00000000000000000E+00   0.00000000000000000E+00   0.00000000000000000E+00   0.00000000000000000E+00
             0.00000000000000000E+00   0.00000000000000000E+00   0.00000000000000000E+00   0.00000000000000000E+00   0.00000000000000000E+00
             0.00000000000000000E+00   0.00000000000000000E+00   0.00000000000000000E+00
 ETA=    8   0.00000000000000000E+00   0.00000000000000000E+00   0.00000000000000000E+00   0.00000000000000000E+00   0.00000000000000000E+00
             0.00000000000000000E+00   0.00000000000000000E+00   0.00000000000000000E+00   0.00000000000000000E+00   0.00000000000000000E+00
             0.00000000000000000E+00   0.00000000000000000E+00   0.00000000000000000E+00   0.00000000000000000E+00   0.00000000000000000E+00
             0.00000000000000000E+00   6.18479021137561183E+05   6.18777214807909681E+05   6.19071393850911409E+05   6.19362714820284280E+05
             6.19653494106959668E+05   6.19944928032376338E+05   6.20238458001898834E+05   6.20533304931871477E+05   6.20828665157071315E+05
             6.21124091634807643E+05   6.21419593045576010E+05   6.21715526942311553E+05   6.22012455497803167E+05   6.22311198110751575E+05
             6.22612949060259736E+05   6.22917970065468689E+05   6.23226480271225446E+05   6.23538480684488080E+05   6.23853764731946518E+05
             6.24172029378378298E+05   6.24492978295331821E+05   6.24816456005773623E+05   6.25142726441624225E+05   0.00000000000000000E+00
             6.25811573584665544E+05   6.26155915754783200E+05   6.26506181022815290E+05   6.26863966667735716E+05   6.27230102579459781E+05
             0.00000000000000000E+00   0.00000000000000000E+00   0.00000000000000000E+00   0.00000000000000000E+00   0.00000000000000000E+00
             0.00000000000000000E+00   0.00000000000000000E+00   0.00000000000000000E+00   0.00000000000000000E+00   0.00000000000000000E+00
             0.00000000000000000E+00   0.00000000000000000E+00   6.31684850508117117E+05   6.31969895928520011E+05   6.32247528236408252E+05
             6.32517545273583382E+05   6.32779066455169232E+05   0.00000000000000000E+00
 ETA=    9   0.00000000000000000E+00   0.00000000000000000E+00   0.00000000000000000E+00   0.00000000000000000E+00   0.00000000000000000E+00
             0.00000000000000000E+00   0.00000000000000000E+00   0.00000000000000000E+00   0.00000000000000000E+00   0.00000000000000000E+00
             0.00000000000000000E+00   0.00000000000000000E+00   0.00000000000000000E+00   0.00000000000000000E+00   0.00000000000000000E+00
             0.00000000000000000E+00   0.00000000000000000E+00   6.19034426831659861E+05   6.19327065482278471E+05   6.19617319260328542E+05
             6.19907101842820179E+05   6.20196933859593235E+05   6.20488933035256574E+05   6.20782163899613312E+05   6.21075811896671890E+05
             6.21369448552131187E+05   6.21663080559852533E+05   6.21957052306058351E+05   6.22251921684379340E+05   6.22548287119820248E+05
             6.22847759456105647E+05   6.23150488256375189E+05   6.23456665099081583E+05   6.23766322876768187E+05   6.24079316141780815E+05
             6.24395418449957273E+05   6.24714438053162652E+05   6.25036387926434167E+05   6.25361795027338667E+05   6.25692005689122016E+05
             6.26028836369382101E+05   6.26371731871908414E+05   6.26719924411213142E+05   6.27073221984937671E+05   6.27431475779443164E+05
             6.27793698700744892E+05   6.28155732132394216E+05   6.28517682571293670E+05   6.28875933720347355E+05   6.29228181799813989E+05
             6.29573578319686349E+05   6.29912396985183004E+05   6.30244632654532907E+05   6.30569691311767325E+05   6.30886932461881544E+05
             6.31195999714009347E+05   6.31496594384753727E+05   6.31788559285325697E+05   6.32072323674350511E+05   6.32348823775584460E+05
             6.32618548766074004E+05   6.32882036019846797E+05   6.33140892881470732E+05
 ETA=   10   0.00000000000000000E+00   0.00000000000000000E+00   0.00000000000000000E+00   0.00000000000000000E+00   0.00000000000000000E+00
             0.00000000000000000E+00   0.00000000000000000E+00   0.00000000000000000E+00   0.00000000000000000E+00   0.00000000000000000E+00
             0.00000000000000000E+00   0.00000000000000000E+00   0.00000000000000000E+00   0.00000000000000000E+00   0.00000000000000000E+00
             0.00000000000000000E+00   0.00000000000000000E+00   6.19288276846622350E+05   6.19579969176681945E+05   6.19869220689882524E+05
             6.20157924842185457E+05   6.20445562914291746E+05   6.20735870498771081E+05   6.21027453317173291E+05   6.21319403867174755E+05
             6.21611298159368685E+05   6.21903144573700731E+05   6.22195275553129031E+05   6.22488234981494956E+05   6.22782379480625968E+05
             6.23079719389977865E+05   6.23380303161819116E+05   6.23684301670793328E+05   6.23991770183714340E+05   6.24302608716919320E+05
             6.24616651414219756E+05   6.24933777619934874E+05   6.25254068367399974E+05   6.25578065006827819E+05   6.25906919620168628E+05
             6.26241754751783679E+05   6.26582166773312958E+05   6.26926981808073353E+05   6.27275296047609299E+05   6.27626520376300672E+05
             6.27979870566960890E+05   6.28332284367028042E+05   6.28684451880427194E+05   6.29033668167263968E+05   6.29378110336970421E+05
             6.29716850537463324E+05   6.30049543877902906E+05   6.30375871461566770E+05   6.30695360769023653E+05   6.31007558072857326E+05
             6.31312171397040016E+05   6.31609060846471228E+05   6.31898282301728963E+05   6.32180206050824607E+05   6.32455470006064279E+05
             6.32724762324842974E+05   6.32988981423817226E+05   6.33249513160239439E+05
 ETA=   11   0.00000000000000000E+00   0.00000000000000000E+00   0.00000000000000000E+00   0.00000000000000000E+00   0.00000000000000000E+00
             0.00000000000000000E+00   0.00000000000000000E+00   0.00000000000000000E+00   0.00000000000000000E+00   0.00000000000000000E+00
             0.00000000000000000E+00   0.00000000000000000E+00   0.00000000000000000E+00   0.00000000000000000E+00   0.00000000000000000E+00
             0.00000000000000000E+00   0.00000000000000000E+00   6.19537258691226249E+05   6.19828054397221655E+05   6.20116403875991120E+05
             6.20404125748269842E+05   6.20689956640187767E+05   6.20978716432546033E+05   6.21268728196620243E+05   6.21559052866640384E+05
             6.21849289579558535E+05   6.22139455864248681E+05   6.22429874353015330E+05   6.22721070859382511E+05   6.23013265576539561E+05
             6.23308651327045518E+05   6.23607234951639897E+05   6.23909185225046356E+05   6.24214578432639362E+05   6.24523350848640315E+05
             6.24835382765648654E+05   6.25150597765265033E+05   6.25469090073040221E+05   6.25791326245362172E+05   6.26118228108401876E+05
             6.26450569911023485E+05   6.26787850977873895E+05   6.27128741181624006E+05   6.27472068722277530E+05   6.27817070922214538E+05
             6.28163087503155693E+05   6.28507673859475995E+05   6.28851793620178127E+05   6.29193316467007855E+05   6.29530744476847001E+05
             6.29863169948749943E+05   6.30190045796992606E+05   6.30510915668826667E+05   6.30825327675575507E+05   6.31132906680886867E+05
             6.31433427895980189E+05   6.31726834288532147E+05   6.32013253953134292E+05   6.32293031533044414E+05   6.32566717102579772E+05
             6.32835031335404143E+05   6.33098947344698245E+05   0.00000000000000000E+00
 ETA=   12   0.00000000000000000E+00   0.00000000000000000E+00   0.00000000000000000E+00   0.00000000000000000E+00   0.00000000000000000E+00
             0.00000000000000000E+00   0.00000000000000000E+00   0.00000000000000000E+00   0.00000000000000000E+00   0.00000000000000000E+00
             0.00000000000000000E+00   0.00000000000000000E+00   0.00000000000000000E+00   0.00000000000000000E+00   0.00000000000000000E+00
             0.00000000000000000E+00   0.00000000000000000E+00   6.19781261551386211E+05   6.20070398435354116E+05   6.20357684126371634E+05
             6.20644471072688932E+05   6.20929660780453705E+05   6.21217238022973179E+05   6.21505832483966951E+05   6.21794639802584890E+05
             6.22083323803202598E+05   6.22371922658978147E+05   6.22660753308153478E+05   6.22950323366927449E+05   6.23240879783925833E+05
             6.23534486151962541E+05   6.23831197047450114E+05   6.24131205481308396E+05   6.24434610774803325E+05   6.24741378799552331E+05
             6.25051424154835986E+05   6.25364696326547768E+05   6.25681276424358948E+05   6.26001530346424552E+05   6.26326161420403514E+05
             6.26655694740301464E+05   6.26989551233593374E+05   6.27326385318340966E+05   6.27664954584740452E+05   6.28004437910714420E+05
             6.28344251448016381E+05   6.28682288154427544E+05   6.29019638597730664E+05   6.29354540241747047E+05   6.29685722800388001E+05
             6.30012345962254214E+05   6.30333820227585384E+05   6.30649645845892024E+05   6.30959377578242798E+05   6.31262676167539088E+05
             6.31559355692818528E+05   6.31849395907536731E+05   6.32132943898284808E+05   6.32410319868846564E+05   6.32682016802574275E+05
             6.32948702025678125E+05   0.00000000000000000E+00   0.00000000000000000E+00
 ETA=   13   0.00000000000000000E+00   0.00000000000000000E+00   0.00000000000000000E+00   0.00000000000000000E+00   0.00000000000000000E+00
             0.00000000000000000E+00   0.00000000000000000E+00   0.00000000000000000E+00   0.00000000000000000E+00   0.00000000000000000E+00
             0.00000000000000000E+00   0.00000000000000000E+00   0.00000000000000000E+00   0.00000000000000000E+00   0.00000000000000000E+00
             0.00000000000000000E+00   0.00000000000000000E+00   6.20021488223726861E+05   6.20308411949549802E+05   6.20594540486222482E+05
             6.20880449422672740E+05   6.21165326434100978E+05   6.21451889955866034E+05   6.21739177454266930E+05   6.22026558119653957E+05
             6.22313772912576795E+05   6.22600886888001929E+05   6.22888215901829652E+05   6.23176252073519281E+05   6.23465369407177903E+05
             6.23757318739284063E+05   6.24052249807970133E+05   6.24350394211586798E+05   6.24651874395335442E+05   6.24956680228128564E+05
             6.25264751466349815E+05   6.25576051941635553E+05   6.25890639245910570E+05   6.26208779265546240E+05   6.26530984767945250E+05
             6.26857588421307621E+05   6.27187974075369304E+05   6.27520849561543553E+05   6.27854987237696536E+05   6.28189555797115201E+05
             6.28524017813637271E+05   6.28856444446041016E+05   6.29188001304898877E+05   6.29517157208063640E+05   6.29842802608409431E+05
             6.30164175633229082E+05   6.30480704683300923E+05   6.30791890153525397E+05   6.31097295245912741E+05   6.31396597195565235E+05
             6.31689626126543386E+05   6.31976371396377450E+05   6.32256974308689940E+05   6.32531723054428003E+05   6.32801049313640920E+05
             6.33065524035749724E+05   0.00000000000000000E+00   0.00000000000000000E+00
 ETA=   14   0.00000000000000000E+00   0.00000000000000000E+00   0.00000000000000000E+00   0.00000000000000000E+00   0.00000000000000000E+00
             0.00000000000000000E+00   0.00000000000000000E+00   0.00000000000000000E+00   0.00000000000000000E+00   0.00000000000000000E+00
             0.00000000000000000E+00   0.00000000000000000E+00   0.00000000000000000E+00   0.00000000000000000E+00   0.00000000000000000E+00
             0.00000000000000000E+00   0.00000000000000000E+00   6.20258444159997511E+05   6.20543493165097199E+05   6.20828684722788166E+05
             6.21113855978981825E+05   6.21397894161208649E+05   6.21683386634966591E+05   6.21969414215761586E+05   6.22255425733564422E+05
             6.22541220277583692E+05   6.22826890196117805E+05   6.23112754814255983E+05   6.23399295329582877E+05   6.23687016255820636E+05
             6.23977362310054596E+05   6.24270565248542232E+05   6.24566891917716363E+05   6.24866484714172315E+05   6.25169352772717364E+05
             6.25475454302944941E+05   6.25784760465694009E+05   6.26097303032356082E+05   6.26413259317927063E+05   6.26732984878105344E+05
             6.27056665078321472E+05   6.27383674563153181E+05   6.27712800550593412E+05   6.28042863464238239E+05   6.28373041534801712E+05
             6.28702825740182307E+05   6.29030375226198696E+05   6.29356914168235380E+05   6.29681056087951758E+05   6.30001804753094679E+05
             6.30318469875806011E+05   6.30630515444272780E+05   6.30937457469960325E+05   6.31238867762483424E+05   6.31534429115715669E+05
             6.31823972882047528E+05   6.32107482507974957E+05   6.32385081583959982E+05   6.32657022828996647E+05   6.32923678602347965E+05
             6.33185523982392391E+05   6.33443098899196368E+05   0.00000000000000000E+00
 ETA=   15   0.00000000000000000E+00   0.00000000000000000E+00   0.00000000000000000E+00   0.00000000000000000E+00   0.00000000000000000E+00
             0.00000000000000000E+00   0.00000000000000000E+00   0.00000000000000000E+00   0.00000000000000000E+00   0.00000000000000000E+00
             0.00000000000000000E+00   0.00000000000000000E+00   0.00000000000000000E+00   0.00000000000000000E+00   0.00000000000000000E+00
             0.00000000000000000E+00   0.00000000000000000E+00   6.20490878978337627E+05   6.20775318485460361E+05   6.21060060869413777E+05
             6.21344699476129608E+05   6.21627725855906960E+05   6.21912163705738611E+05   6.22196991357777617E+05   6.22481687195872655E+05
             6.22766098020306323E+05   6.23050345355700818E+05   6.23334756932957796E+05   6.23619808533814270E+05   6.23906113671521889E+05
             6.24194868122648099E+05   6.24486361891325098E+05   6.24780889754045755E+05   6.25078610944465501E+05   6.25379550661010784E+05
             6.25683681051765219E+05   6.25990976453782059E+05   6.26301444171081414E+05   6.26615187881487305E+05   6.26932439353711903E+05
             6.27253274659730494E+05   6.27577073707651813E+05   6.27902705542758456E+05   6.28229047788331518E+05   6.28555296229980420E+05
             6.28880960107585182E+05   6.29203568446171004E+05   6.29525229198976187E+05   6.29844698275094968E+05   6.30161007982052164E+05
             6.30473436978174606E+05   6.30781421397565980E+05   6.31084484732773853E+05   6.31382224875255255E+05   6.31674339408339001E+05
             6.31960652109391871E+05   6.32241122710998519E+05   6.32515843011609511E+05   6.32785027416393394E+05   6.33048999714460224E+05
             6.33308169866021839E+05   6.33562986058195122E+05   0.00000000000000000E+00
 ETA=   16   0.00000000000000000E+00   0.00000000000000000E+00   0.00000000000000000E+00   0.00000000000000000E+00   0.00000000000000000E+00
             0.00000000000000000E+00   0.00000000000000000E+00   0.00000000000000000E+00   0.00000000000000000E+00   0.00000000000000000E+00
             0.00000000000000000E+00   0.00000000000000000E+00   0.00000000000000000E+00   0.00000000000000000E+00   0.00000000000000000E+00
             0.00000000000000000E+00   0.00000000000000000E+00   6.20717719204885536E+05   6.21003110312285833E+05   6.21288096340137767E+05
             6.21572534157670569E+05   6.21854871359878452E+05   6.22138420316578937E+05   6.22422151950068306E+05   6.22705600790256518E+05
             6.22988670301629230E+05   6.23271516705205548E+05   6.23554481419739197E+05   6.23838040587210678E+05   6.24122927460193867E+05
             6.24410087431588210E+05   6.24699869593004929E+05   6.24992596797159058E+05   6.25288444938102039E+05   6.25587454070185078E+05
             6.25889607711434364E+05   6.26194881140279933E+05   6.26503260064898175E+05   6.26814789717535954E+05   6.27129609069929458E+05
             6.27447716773588094E+05   6.27768503192976466E+05   6.28090909537140513E+05   6.28413868806954939E+05   6.28736597651129821E+05
             6.29058618186740787E+05   6.29377279296733090E+05   6.29694958598998957E+05   6.30010495055116015E+05   6.30322964849159005E+05
             6.30631663639983628E+05   6.30936034713795176E+05   6.31235608671977883E+05   6.31529988090576255E+05   6.31818866508548381E+05
             6.32102053009641008E+05   6.32379484598764335E+05   6.32651225693811313E+05   6.32917461007165490E+05   6.33178485290278681E+05
             6.33434688036095584E+05   6.33686526903393213E+05   0.00000000000000000E+00
 ETA=   17   0.00000000000000000E+00   0.00000000000000000E+00   0.00000000000000000E+00   0.00000000000000000E+00   0.00000000000000000E+00
             0.00000000000000000E+00   0.00000000000000000E+00   0.00000000000000000E+00   0.00000000000000000E+00   0.00000000000000000E+00
             0.00000000000000000E+00   0.00000000000000000E+00   0.00000000000000000E+00   0.00000000000000000E+00   0.00000000000000000E+00
             0.00000000000000000E+00   0.00000000000000000E+00   6.20939767955425195E+05   6.21226912309697014E+05   6.21512757842530380E+05
             6.21797396307154093E+05   6.22079538102503051E+05   6.22362415643875021E+05   6.22645167767873732E+05   6.22927441188107128E+05
             6.23209211722298525E+05   6.23490676308130845E+05   6.23772194746379391E+05   6.24054248989280895E+05   6.24337730225656764E+05
             6.24623282729740255E+05   6.24911333350910572E+05   6.25202240133251064E+05   6.25496198321104283E+05   6.25793263435880071E+05
             6.26093429487988353E+05   6.26396671952235512E+05   6.26702958520143293E+05   6.27012290144245024E+05   6.27324740291485097E+05
             6.27640256156760617E+05   6.27958237845665310E+05   6.28277683700680849E+05   6.28597575959990616E+05   6.28917153789471602E+05
             6.29235949492267915E+05   6.29551279917619890E+05   6.29865579424964613E+05   6.30177740064485464E+05   6.30486875689471257E+05
             6.30792304900456336E+05   6.31093482040780946E+05   6.31389939259008970E+05   6.31681271930248244E+05   6.31967158113732003E+05
             6.32247384658029536E+05   6.32521861978726694E+05   6.32790626128682983E+05   6.33053834729221300E+05   6.33311762416027137E+05
             6.33564799023072934E+05   6.33813455400673556E+05   6.34062111778274179E+05
 ETA=   18   0.00000000000000000E+00   0.00000000000000000E+00   0.00000000000000000E+00   0.00000000000000000E+00   0.00000000000000000E+00
             0.00000000000000000E+00   0.00000000000000000E+00   0.00000000000000000E+00   0.00000000000000000E+00   0.00000000000000000E+00
             0.00000000000000000E+00   0.00000000000000000E+00   0.00000000000000000E+00   0.00000000000000000E+00   0.00000000000000000E+00
             0.00000000000000000E+00   0.00000000000000000E+00   6.21159308930766187E+05   6.21448117896354059E+05   6.21735012976074708E+05
             6.22020014840657241E+05   6.22302282558707055E+05   6.22584617022134131E+05   6.22866463002653793E+05   6.23147607546864660E+05
             6.23428102871629875E+05   6.23708188156815479E+05   6.23988244177965098E+05   6.24268763083673781E+05   6.24550837042576517E+05
             6.24834750791181810E+05   6.25121029651997611E+05   6.25410076359561877E+05   6.25702109788469272E+05   6.25997202920553973E+05
             6.26295360828606761E+05   6.26596559716831427E+05   6.26900753275776748E+05   6.27207910912274499E+05   6.27518063772563357E+05
             6.27831128010645043E+05   6.28146509125359124E+05   6.28463245926218806E+05   6.28780362726359046E+05   6.29097122613555053E+05
             6.29413066961251898E+05   6.29725511085001403E+05   6.30036890501203481E+05   6.30346133711717674E+05   6.30652381444328348E+05
             6.30954968193479115E+05   6.31253352644665400E+05   6.31547060033361078E+05   6.31835668785786023E+05   6.32118832054288010E+05
             6.32396306411709869E+05   6.32667969205765985E+05   6.32933822876090882E+05   6.33193993100655149E+05   6.33448727790835197E+05
             6.33698403384020552E+05   6.33943549815184553E+05   6.34188696246348554E+05
 ETA=   19   0.00000000000000000E+00   0.00000000000000000E+00   0.00000000000000000E+00   0.00000000000000000E+00   0.00000000000000000E+00
             0.00000000000000000E+00   0.00000000000000000E+00   0.00000000000000000E+00   0.00000000000000000E+00   0.00000000000000000E+00
             0.00000000000000000E+00   0.00000000000000000E+00   0.00000000000000000E+00   0.00000000000000000E+00   0.00000000000000000E+00
             0.00000000000000000E+00   0.00000000000000000E+00   6.21378798484836007E+05   6.21668994975247304E+05   6.21956728311787941E+05
             6.22241865316879819E+05   6.22523898817804060E+05   6.22805613031925168E+05   6.23086557007870404E+05   6.23366586217537173E+05
             6.23645806335251546E+05   6.23924493075542385E+05   6.24203048419492086E+05   6.24481978152814321E+05   6.24762616204097634E+05
             6.25044834547196049E+05   6.25329275980303530E+05   6.25616398215545109E+05   6.25906448983305250E+05   6.26199521770552616E+05
             6.26495634499157197E+05   6.26794765723943245E+05   6.27096859440618427E+05   6.27401864829743281E+05   6.27709790229929495E+05
             6.28020536638156278E+05   6.28333508402864914E+05   6.28647768102921313E+05   6.28962375197703834E+05   6.29276618322512717E+05
             6.29590047788344207E+05   6.29899969415928004E+05   6.30208819350597216E+05   6.30515550476333825E+05   6.30819319761039456E+05
             6.31119468326861272E+05   6.31415450431795558E+05   6.31706775425150292E+05   6.31992995549786370E+05   6.32273729953686474E+05
             6.32548696399925975E+05   6.32817731314083561E+05   6.33080795766193653E+05   6.33337973759320332E+05   6.33589469585670158E+05
             6.33835610754304449E+05   6.34076868744976469E+05   6.34318126735648490E+05
 ETA=   20   0.00000000000000000E+00   0.00000000000000000E+00   0.00000000000000000E+00   0.00000000000000000E+00   0.00000000000000000E+00
             0.00000000000000000E+00   0.00000000000000000E+00   0.00000000000000000E+00   0.00000000000000000E+00   0.00000000000000000E+00
             0.00000000000000000E+00   0.00000000000000000E+00   0.00000000000000000E+00   0.00000000000000000E+00   0.00000000000000000E+00
             0.00000000000000000E+00   0.00000000000000000E+00   6.21598934722053586E+05   6.21890248025086941E+05   6.22178642461949144E+05
             6.22463694479392376E+05   6.22744893727163319E+05   6.23025903538339771E+05   6.23305954319785116E+05   6.23584879999861005E+05
             6.23862817518265219E+05   6.24140073815450305E+05   6.24417072497459594E+05   6.24694336881918367E+05   6.24973489549315535E+05
             6.25253925676880055E+05   6.25536432138917153E+05   6.25821534377585514E+05   6.26109515088317450E+05   6.26400492006225511E+05
             6.26694498563441564E+05   6.26991518069549929E+05   6.27291489207133884E+05   6.27594351017610868E+05   6.27900105881221592E+05
             6.28208652551935054E+05   6.28519386492599733E+05   6.28831377727660583E+05   6.29143714318305138E+05   6.29455712251406629E+05
             6.29766931232407223E+05   6.30074642965365550E+05   6.30381310615447816E+05   6.30685899410762009E+05   6.30987572824992007E+05
             6.31285670185910189E+05   6.31579633298229659E+05   6.31868947391319671E+05   6.32153129913229961E+05   6.32431757247713860E+05
             6.32704499865508405E+05   6.32971145345960394E+05   6.33231605634589563E+05   6.33485913548168610E+05   6.33734213412995334E+05
             6.33976748782372219E+05   6.34213850793669582E+05   6.34450952804966946E+05
 ETA=   21   0.00000000000000000E+00   0.00000000000000000E+00   0.00000000000000000E+00   0.00000000000000000E+00   0.00000000000000000E+00
             0.00000000000000000E+00   0.00000000000000000E+00   0.00000000000000000E+00   0.00000000000000000E+00   0.00000000000000000E+00
             0.00000000000000000E+00   0.00000000000000000E+00   0.00000000000000000E+00   0.00000000000000000E+00   0.00000000000000000E+00
             0.00000000000000000E+00   0.00000000000000000E+00   6.21817288468596758E+05   6.22109157469143160E+05   6.22398471991189057E+05
             6.22683823527270695E+05   6.22965380271022441E+05   6.23246062844631262E+05   6.23525309344255598E+05   6.23803133802269003E+05
             6.24079754092583666E+05   6.24355516896068119E+05   6.24630869665473001E+05   6.24906357298414572E+05   6.25183938787234249E+05
             6.25462460912785260E+05   6.25742892575648148E+05   6.26025840490122908E+05   6.26311627875025617E+05   6.26600400198269635E+05
             6.26892209311606828E+05   6.27187046042111353E+05   6.27484847979013459E+05   6.27785552999697626E+05   6.28089172225615242E+05
             6.28395612855221611E+05   6.28704253515938763E+05   6.29014156316080363E+05   6.29324431932252483E+05   6.29634425677511841E+05
             6.29943707553745713E+05   6.30249483948773239E+05   6.30554283031542553E+05   6.30857069879011484E+05   6.31157006481510005E+05
             6.31453423895081854E+05   6.31745745204041479E+05   6.32033424796071369E+05   6.32315937934439862E+05   6.32592810428366531E+05
             6.32863657841498149E+05   6.33128212199973990E+05   6.33386330932607059E+05   6.33637991271081963E+05   6.33883272788082948E+05
             6.34122327284126659E+05   6.34355330622952431E+05   0.00000000000000000E+00
 ETA=   22   0.00000000000000000E+00   0.00000000000000000E+00   0.00000000000000000E+00   0.00000000000000000E+00   0.00000000000000000E+00
             0.00000000000000000E+00   0.00000000000000000E+00   0.00000000000000000E+00   0.00000000000000000E+00   0.00000000000000000E+00
             0.00000000000000000E+00   0.00000000000000000E+00   0.00000000000000000E+00   0.00000000000000000E+00   0.00000000000000000E+00
             0.00000000000000000E+00   0.00000000000000000E+00   6.22033904409780400E+05   6.22325428452271153E+05   6.22615813559239032E+05
             6.22901943339618505E+05   6.23186734266649815E+05   6.23467588679173496E+05   6.23745956877773744E+05   6.24022497901253053E+05
             6.24297607067023637E+05   6.24571682483171578E+05   6.24845192808085587E+05   6.25118703243175056E+05   6.25394497567133862E+05
             6.25670892726753489E+05   6.25949052635302651E+05   6.26229666116588400E+05   6.26513097229581093E+05   6.26799520491639618E+05
             6.27089008551448584E+05   6.27381562725282623E+05   6.27677123826427269E+05   6.27975636517098872E+05   6.28277131467682775E+05
             6.28581529837856768E+05   6.28888186095079640E+05   6.29196142426051083E+05   6.29504528249497409E+05   6.29812721062116325E+05
             6.30120302921488299E+05   6.30424399825590313E+05   6.30727617212289595E+05   6.31028914700917434E+05   6.31327449265861884E+05
             6.31622540260455804E+05   6.31913588253517868E+05   6.32200012269503903E+05   6.32481239939519903E+05   6.32756740371749736E+05
             6.33026068218381261E+05   6.33288895266730804E+05   6.33545022390210535E+05   6.33794373303643893E+05   6.34036971492125886E+05
             6.34272899193492718E+05   6.34502235531181796E+05   0.00000000000000000E+00
 ETA=   23   0.00000000000000000E+00   0.00000000000000000E+00   0.00000000000000000E+00   0.00000000000000000E+00   0.00000000000000000E+00
             0.00000000000000000E+00   0.00000000000000000E+00   0.00000000000000000E+00   0.00000000000000000E+00   0.00000000000000000E+00
             0.00000000000000000E+00   0.00000000000000000E+00   0.00000000000000000E+00   0.00000000000000000E+00   0.00000000000000000E+00
             0.00000000000000000E+00   0.00000000000000000E+00   6.22261114389827359E+05   6.22550857682560105E+05   6.22840818671068060E+05
             6.23126418890212895E+05   6.23413157783081639E+05   6.23693194640693488E+05   6.23969943805085262E+05   6.24244604543377180E+05
             6.24517699842428439E+05   6.24789653715766384E+05   6.25060936892780475E+05   6.25332121608230518E+05   6.25605662948458223E+05
             6.25879603688342497E+05   6.26155229629589478E+05   6.26433282875702484E+05   6.26714158391810022E+05   6.26998057080408325E+05
             6.27285073942877934E+05   6.27575224667005474E+05   6.27868459077592823E+05   6.28164736186016351E+05   6.28464108981674886E+05
             6.28766505039271200E+05   6.29071247640622780E+05   6.29377354381540325E+05   6.29683974638988380E+05   6.29990523208249593E+05
             6.30296597572384402E+05   6.30599262914294261E+05   6.30901158997330349E+05   6.31201249249738292E+05   6.31498688168591820E+05
             6.31792783589268918E+05   6.32082912775936187E+05   6.32368457661293214E+05   6.32648795330946916E+05   6.32923334278125083E+05
             6.33191564244587556E+05   6.33453094238341087E+05   6.33707669383406756E+05   6.33955166205110261E+05   6.34195566956684925E+05
             6.34428912951785373E+05   6.34655239023411181E+05   0.00000000000000000E+00
 ETA=   24   0.00000000000000000E+00   6.17876860593431047E+05   6.18140206867385656E+05   6.18407734799096943E+05   6.18666978935961728E+05
             0.00000000000000000E+00   0.00000000000000000E+00   0.00000000000000000E+00   0.00000000000000000E+00   6.20048901372741675E+05
             6.20344155519588967E+05   6.20650050673083635E+05   6.20962185552500421E+05   6.21284883990579052E+05   6.21620110574249760E+05
             6.21948404893876286E+05   0.00000000000000000E+00   6.22516499643552583E+05   6.22799999488312169E+05   6.23085138799067703E+05
             6.23366539546603803E+05   6.23648247028132202E+05   6.23924897326706327E+05   6.24198729994422989E+05   6.24470605404096073E+05
             6.24740957124510780E+05   6.25010177237155731E+05   6.25278703696015989E+05   6.25547090643706615E+05   6.25817718186894315E+05
             6.26088794719341211E+05   6.26361578491104301E+05   6.26636815135452664E+05   6.26914913189508719E+05   6.27196094043025747E+05
             6.27480476559259929E+05   6.27768096751968260E+05   6.28058922428463469E+05   6.28352935548727633E+05   6.28650203476699302E+05
             6.28950632623293903E+05   6.29253506299020490E+05   6.29557822157819057E+05   6.29862757653014502E+05   6.30167772956060246E+05
             6.30472486107895267E+05   6.30773936128450790E+05   6.31074736794922967E+05   6.31373867630931083E+05   6.31670485313749989E+05
             6.31963889373085694E+05   6.32253436410917668E+05   6.32538472638767795E+05   6.32818324150789180E+05   6.33092336821981939E+05
             6.33359933075323817E+05   6.33620658153732540E+05   6.33874203988629277E+05   6.34120408165424829E+05   6.34359227751156432E+05
             6.34590688204717124E+05   6.34814809364628163E+05   0.00000000000000000E+00
 ETA=   25   6.18055080833338434E+05   6.18287797781467438E+05   6.18532100080828881E+05   6.18782346432793187E+05   6.19033011064091697E+05
             0.00000000000000000E+00   0.00000000000000000E+00   0.00000000000000000E+00   0.00000000000000000E+00   6.20393125248499913E+05
             6.20679183927207254E+05   6.20974611883705715E+05   6.21277644298020634E+05   6.21588139508414897E+05   6.21902852692476707E+05
             6.22210901674044551E+05   6.22501479508432210E+05   6.22782189609969268E+05   6.23061181274854927E+05   6.23340478520444594E+05
             6.23616379322207416E+05   6.23890170015555806E+05   6.24161964506973396E+05   6.24431942664070404E+05   6.24700265008820221E+05
             6.24967209035611479E+05   6.25233125158057897E+05   6.25498372801046469E+05   6.25763445729875006E+05   6.26030640719145187E+05
             6.26298491021289490E+05   6.26568136875114869E+05   6.26840303716151859E+05   6.27115403205481009E+05   6.27393673120745691E+05
             6.27675258862583200E+05   6.27960223831984447E+05   6.28248564517103834E+05   6.28540295550039853E+05   6.28835485836748965E+05
             6.29133982492212788E+05   6.29435017628911417E+05   6.29737577608701889E+05   6.30040879118308774E+05   6.30344436799614457E+05
             6.30647895069612307E+05   6.30948300846597878E+05   6.31248208951737266E+05   6.31546607010943117E+05   6.31842655856185011E+05
             6.32135654608873883E+05   6.32424947432089830E+05   6.32709849261644995E+05   6.32989635112324730E+05   6.33263585201170645E+05
             6.33531051050778246E+05   6.33791512575544766E+05   6.34044611351425992E+05   6.34290155274285120E+05   6.34528093687839457E+05
             6.34758463585348567E+05   6.34981308180905762E+05   0.00000000000000000E+00
 ETA=   26   6.18461853169107810E+05   6.18683884465790587E+05   6.18915737972954172E+05   6.19154834820672055E+05   6.19398994951322442E+05
             0.00000000000000000E+00   0.00000000000000000E+00   0.00000000000000000E+00   0.00000000000000000E+00   6.20724170658873743E+05
             6.21004704247508664E+05   6.21291760717705125E+05   6.21585608676148928E+05   6.21885364923327812E+05   6.22187250328344642E+05
             6.22483795985649456E+05   6.22769340187486494E+05   6.23046788842077367E+05   6.23322025020683184E+05   6.23595919590911828E+05
             6.23866745995870908E+05   6.24134989338049898E+05   6.24402134655898786E+05   6.24668060668582679E+05   6.24932399626970757E+05
             6.25195474181995494E+05   6.25457691577332560E+05   6.25719223995191860E+05   6.25980378411541576E+05   6.26244296344536706E+05
             6.26508749217615579E+05   6.26775046330890385E+05   6.27043938151494716E+05   6.27315846736463252E+05   6.27591030064644292E+05
             6.27869663512658211E+05   6.28151839915736928E+05   6.28437589066782966E+05   6.28726965088627301E+05   6.29020037912471336E+05
             6.29316583317790413E+05   6.29615775574560277E+05   6.29916589185260469E+05   6.30218282177288667E+05   6.30520427623268217E+05
             6.30822700511512929E+05   6.31122305172544904E+05   6.31421594929802231E+05   6.31719533071016427E+05   6.32015291405331809E+05
             6.32308194204565021E+05   6.32597596072888235E+05   6.32882787978184060E+05   6.33162986605998478E+05   6.33437392472309875E+05
             6.33705272552081384E+05   6.33966033134430880E+05   6.34219265694617061E+05   6.34464758958445862E+05   6.34702476378910476E+05
             6.34932501586899161E+05   6.35154953465996776E+05   0.00000000000000000E+00
 ETA=   27   6.18847732908012695E+05   6.19062573248235742E+05   6.19285896810734994E+05   6.19517158165914007E+05   6.19757183940034127E+05
             6.20012032795517356E+05   0.00000000000000000E+00   0.00000000000000000E+00   0.00000000000000000E+00   6.21053790155517869E+05
             6.21322156235255999E+05   6.21600642608517548E+05   6.21885941678065457E+05   6.22176371802178444E+05   6.22468428169706836E+05
             6.22756301774977939E+05   6.23035958843221888E+05   6.23309068476233166E+05   6.23580302715299302E+05   6.23849439740085742E+05
             6.24115804971325677E+05   6.24379851869328064E+05   6.24642953112179064E+05   6.24904959190582973E+05   6.25165495790016721E+05
             6.25424887519736541E+05   6.25683533206866821E+05   6.25941509484439041E+05   6.26199051891902112E+05   6.26458920955953654E+05
             6.26719753564818064E+05   6.26982570986875915E+05   6.27248056110274629E+05   6.27516633430169895E+05   6.27788590125120129E+05
             6.28064132679661503E+05   6.28343372306313599E+05   6.28626363260648795E+05   6.28913198584126192E+05   6.29203971301446902E+05
             6.29498428381575039E+05   6.29795697272139369E+05   6.30094726876582368E+05   6.30394800393402344E+05   6.30695540706436383E+05
             6.30996652806189959E+05   6.31296078583526658E+05   6.31595314910860616E+05   6.31893255753962905E+05   6.32189122597640264E+05
             6.32482344839644735E+05   6.32772349349240074E+05   6.33058411856284249E+05   6.33339657260912238E+05   6.33615158247445710E+05
             6.33884054073676118E+05   6.34145649501473643E+05   6.34399478424689383E+05   6.34645324270120007E+05   6.34883198200691608E+05
             6.35113284070696449E+05   6.35335844888972584E+05   0.00000000000000000E+00
 ETA=   28   6.19212764109888230E+05   6.19422878868295113E+05   6.19639631559212226E+05   6.19863848605779465E+05   6.20096454808860319E+05
             6.20339334874419612E+05   6.20591667524341494E+05   0.00000000000000000E+00   0.00000000000000000E+00   6.21360869376735762E+05
             6.21626896435723756E+05   6.21899506933502154E+05   6.22177662448653951E+05   6.22460103864719393E+05   6.22743916521713487E+05
             6.23024550274444744E+05   6.23298916693631443E+05   6.23568171368882526E+05   6.23836314430440078E+05   6.24101428792944760E+05
             6.24363888774449821E+05   6.24624159105007886E+05   6.24883513121897355E+05   6.25141793959652423E+05   6.25398646867918316E+05
             6.25654422240916640E+05   6.25909528068672516E+05   6.26163946983164875E+05   6.26417841529245954E+05   6.26674038475869689E+05
             6.26931317316327943E+05   6.27190638994779089E+05   6.27452657726462581E+05   6.27717822546727490E+05   6.27986468403252773E+05
             6.28258830928689335E+05   6.28535012838269817E+05   6.28815074398789555E+05   6.29099142325713066E+05   6.29387355692849029E+05
             6.29679493460470461E+05   6.29974671430910006E+05   6.30271812636183458E+05   6.30570203106316272E+05   6.30869492436732166E+05
             6.31169407261328306E+05   6.31467818220127258E+05   6.31766330269953236E+05   6.32063834515644587E+05   6.32359566433472326E+05
             6.32652975954247988E+05   6.32943507580134436E+05   6.33230437644743593E+05   6.33512860927013098E+05   6.33789786241492722E+05
             6.34060269824319868E+05   6.34323541065446567E+05   6.34579088635964668E+05   6.34826686177648604E+05   6.35066366284421645E+05
             6.35298380094229942E+05   6.35523124969297787E+05   0.00000000000000000E+00
 ETA=   29   6.19563579848288326E+05   6.19768643470369978E+05   6.19979466543442104E+05   6.20197392973860144E+05   6.20423237202300457E+05
             6.20657823171593016E+05   6.20900783434413141E+05   0.00000000000000000E+00   0.00000000000000000E+00   6.21659640028400812E+05
             6.21922090904252022E+05   6.22189567255490227E+05   6.22461589011502918E+05   6.22737120099378051E+05   6.23013795046731131E+05
             6.23288180713917944E+05   6.23557953847261611E+05   6.23823764625949319E+05   6.24088333144994918E+05   6.24349119167533121E+05
             6.24608311542254989E+05   6.24865788578421227E+05   6.25121930000243476E+05   6.25376824214699096E+05   6.25630461405824870E+05
             6.25883038331744145E+05   6.26134810871223919E+05   6.26385972447503125E+05   6.26636912357845926E+05   6.26889327839226928E+05
             6.27143066097198986E+05   6.27398887442856678E+05   6.27657407369084191E+05   6.27919117848698050E+05   6.28184422981699347E+05
             6.28453583058066433E+05   6.28726650576520129E+05   6.29003669145525433E+05   6.29284795319059631E+05   6.29570215505233733E+05
             6.29859769013741869E+05   6.30152616424168926E+05   6.30447694078986184E+05   6.30744278619477060E+05   6.31042011044661282E+05
             6.31340621758545865E+05   6.31638039243914885E+05   6.31935816664205166E+05   6.32232901581899263E+05   6.32528574690809357E+05
             6.32822323992704973E+05   6.33113625688511995E+05   6.33401769571947050E+05   6.33685825561025878E+05   6.33964729416746530E+05
             6.34237434599604923E+05   6.34503080720869359E+05   6.34761114957639249E+05   6.35011312348567299E+05   6.35253714183140430E+05
             6.35488629487758037E+05   0.00000000000000000E+00   0.00000000000000000E+00
 ETA=   30   6.19906052602580399E+05   6.20104498539820430E+05   6.20309465874981834E+05   6.20521676260308363E+05   6.20741666799049708E+05
             6.20969912997806678E+05   6.21206276157408487E+05   0.00000000000000000E+00   0.00000000000000000E+00   6.21952002765141195E+05
             6.22210301936826319E+05   6.22472945719577838E+05   6.22739509503624402E+05   6.23009028028925182E+05   6.23279559277906897E+05
             6.23548531096043764E+05   6.23814213274709880E+05   6.24076971971268998E+05   6.24338965380454203E+05   6.24596504567927914E+05
             6.24852601111574913E+05   6.25107091028260067E+05   6.25360126736111240E+05   6.25611818640009034E+05   6.25862239430221613E+05
             6.26111564414735418E+05   6.26360014862180105E+05   6.26607821376051055E+05   6.26855414879183518E+05   6.27104237186365295E+05
             6.27354452945337980E+05   6.27606740058671101E+05   6.27861709559635259E+05   6.28119917025583214E+05   6.28381855783810024E+05
             6.28647811958178179E+05   6.28917752033380326E+05   6.29191688151169452E+05   6.29469808155975305E+05   6.29752324945691042E+05
             6.30039114403533866E+05   6.30329424646988162E+05   6.30622261407255428E+05   6.30916896402530838E+05   6.31212933674278436E+05
             6.31510090349015547E+05   6.31806520932036336E+05   6.32103515657262411E+05   6.32400155866161804E+05   6.32695807749647531E+05
             6.32990022525283624E+05   6.33282331989800208E+05   6.33572063099669758E+05   6.33858268572419533E+05   6.34139784809886711E+05
             6.34415409359653131E+05   6.34684152232526452E+05   6.34945431517132442E+05   6.35199065102522378E+05   6.35445035464143381E+05
             6.35683408047119272E+05   0.00000000000000000E+00   0.00000000000000000E+00
 ETA=   31   6.20239717632439220E+05   6.20432214009847026E+05   6.20631897241051658E+05   6.20838961681025336E+05   6.21053742729001562E+05
             6.21276582309493097E+05   6.21507433544791071E+05   6.21745540248190402E+05   6.21989777001225273E+05   6.22239173428018461E+05
             6.22493075458445703E+05   6.22751045354397036E+05   6.23012603459008969E+05   6.23276824384127045E+05   6.23542063705247827E+05
             6.23806303043122403E+05   6.24068190575974411E+05   6.24327954490191536E+05   6.24587447389140609E+05   6.24842115577283781E+05
             6.25095347563799238E+05   6.25346979699032847E+05   6.25597095833254862E+05   6.25845785642344970E+05   6.26093132466281531E+05
             6.26339312766568735E+05   6.26584539049574407E+05   6.26829034707361599E+05   6.27073228609498590E+05   6.27318473069075495E+05
             6.27565139933356084E+05   6.27813840888225473E+05   6.28065193758359761E+05   6.28319821059261914E+05   6.28578313464671141E+05
             6.28841002348607872E+05   6.29107753465427784E+05   6.29378552230125642E+05   6.29653625516818254E+05   6.29933210105077364E+05
             6.30217199842268135E+05   6.30504919856425375E+05   6.30795442591120256E+05   6.31088033684930415E+05   6.31382259322503931E+05
             6.31677823807075387E+05   6.31973187744281255E+05   6.32269301631734590E+05   6.32565421940882457E+05   6.32861035305632860E+05
             6.33155789398932364E+05   6.33449314792053890E+05   6.33741025427602232E+05   6.34029977706774487E+05   6.34314856150258565E+05
             6.34594185061987257E+05   6.34866754242950003E+05   6.35132002430316177E+05   6.35389990674508037E+05   6.35640611412635655E+05
             6.35881832651165081E+05   0.00000000000000000E+00   0.00000000000000000E+00
 ETA=   32   6.20563485805443022E+05   6.20752048404156463E+05   6.20947401901891339E+05   6.21149928578501800E+05   6.21360001384356292E+05
             6.21577957898285356E+05   6.21803814075967763E+05   6.22037015762902447E+05   6.22276579697948298E+05   6.22521476787988096E+05
             6.22770909343177336E+05   6.23024330232752603E+05   6.23281207958187559E+05   6.23540658614887972E+05   6.23801241402385989E+05
             6.24061265528398682E+05   6.24319594093360007E+05   6.24576384824949317E+05   6.24833284626258537E+05   6.25085308072436368E+05
             6.25335899914114503E+05   6.25584883167655207E+05   6.25832297543844325E+05   6.26078197997825453E+05   6.26322657731885556E+05
             6.26565856305126916E+05   6.26808003382270923E+05   6.27049306636259658E+05   6.27290182897649589E+05   6.27531890625267057E+05
             6.27774994780684123E+05   6.28020065381568624E+05   6.28267731786691817E+05   6.28518676465479657E+05   6.28773597830123734E+05
             6.29032954348193714E+05   6.29296421593254781E+05   6.29563987038427964E+05   6.29835940362959402E+05   6.30112571324059274E+05
             6.30393807410202455E+05   6.30678999584724312E+05   6.30967221712804865E+05   6.31257717609043117E+05   6.31550035026376136E+05
             6.31843880479260581E+05   6.32138051568027469E+05   6.32433146054403274E+05   6.32728612164878752E+05   6.33024083804741153E+05
             6.33319343808201840E+05   6.33614189722334384E+05   6.33908219073192799E+05   6.34200552332894644E+05   6.34489646377839148E+05
             6.34773533923269715E+05   6.35050596058861585E+05   6.35320403331410373E+05   6.35583985654501128E+05   6.35842640234728111E+05
             6.36082867333814735E+05   0.00000000000000000E+00   0.00000000000000000E+00
 ETA=   33   0.00000000000000000E+00   6.21064544746903470E+05   6.21256188206003513E+05   6.21454636041020392E+05   6.21660384522816981E+05
             6.21873816016606637E+05   6.22094998720827978E+05   6.22323491755393567E+05   6.22558424494076986E+05   6.22798804186099791E+05
             6.23043799989294261E+05   6.23292809906728100E+05   6.23545271699739620E+05   6.23800342419120483E+05   6.24056724906109041E+05
             6.24312929706469644E+05   6.24567944977663225E+05   6.24821892028869828E+05   6.25076296123791602E+05   6.25325883983722073E+05
             6.25574059132786002E+05   6.25820618359514745E+05   6.26065553631960647E+05   6.26308876943262760E+05   6.26550643476957921E+05
             6.26791034930994851E+05   6.27030260946697439E+05   6.27268514685391448E+05   6.27506199033024837E+05   6.27744405553944292E+05
             6.27983897398918401E+05   6.28225243576434907E+05   6.28469086463523097E+05   6.28716149364657351E+05   6.28967260985833127E+05
             6.29223417727130349E+05   6.29483515149387531E+05   6.29747693308019079E+05   6.30016385299294721E+05   6.30290017925616121E+05
             6.30568630988796940E+05   6.30851497345232870E+05   6.31137538997025695E+05   6.31425942281723255E+05   6.31716285622251336E+05
             6.32008315115097677E+05   6.32301164909353014E+05   6.32595059600068256E+05   6.32889642679790268E+05   6.33184707789092907E+05
             6.33480201656546327E+05   6.33776172006293782E+05   6.34072568881437532E+05   6.34368742848870577E+05   6.34662871568190982E+05
             6.34952143427528325E+05   6.35234137252925197E+05   6.35508504484729841E+05   6.35778345574753126E+05   6.36048186664776411E+05
             0.00000000000000000E+00   0.00000000000000000E+00   0.00000000000000000E+00
 ETA=   34   6.21188014815911069E+05   6.21370390482698102E+05   6.21558493579622474E+05   6.21753092032479937E+05   6.21954763832998811E+05
             6.22163924515789258E+05   6.22380672686499311E+05   6.22604640394546674E+05   6.22835054976456682E+05   6.23070995904121315E+05
             6.23311652882023598E+05   6.23556407327354071E+05   6.23804684782222612E+05   6.24055680656565586E+05   6.24308205822144519E+05
             6.24560908337687375E+05   6.24812856739693554E+05   6.25064150923947804E+05   6.25316261748824269E+05   6.25563631722955732E+05
             6.25809623518834822E+05   6.26053997573610279E+05   6.26296690331165446E+05   6.26537664030050510E+05   6.26776950318037765E+05
             6.27014730860364274E+05   6.27251217026751721E+05   6.27486590787495370E+05   6.27721240845284658E+05   6.27955933385467273E+05
             6.28191569802654441E+05   6.28428897445843089E+05   6.28668558925665915E+05   6.28911253103136667E+05   6.29157718557309592E+05
             6.29411668584213476E+05   6.29668204299978679E+05   6.29928660765703535E+05   6.30193764665340888E+05   6.30464284242363647E+05
             6.30740677480455372E+05   6.31021839876951184E+05   6.31306105803511222E+05   6.31592544359038817E+05   6.31880934907122981E+05
             6.32171172555969330E+05   6.32462627154078917E+05   6.32755086433403892E+05   6.33048425480424543E+05   6.33342580467800493E+05
             6.33637639627506956E+05   6.33933954696416040E+05   6.34232126458675019E+05   6.34532200827406836E+05   6.34832174948757049E+05
             6.35127764737823512E+05   6.35414900528309750E+05   6.35692380250601214E+05   6.35954715111684520E+05   0.00000000000000000E+00
             0.00000000000000000E+00   0.00000000000000000E+00   0.00000000000000000E+00
 ETA=   35   6.21490819668437936E+05   6.21670053664446576E+05   6.21854585813196027E+05   6.22045380100711947E+05   6.22243099249279592E+05
             6.22448165267424891E+05   6.22660674968272331E+05   6.22880301142646815E+05   6.23106352229816606E+05   6.23337988472886966E+05
             6.23574444475277793E+05   6.23815109396868269E+05   6.24059411190704210E+05   6.24306582749756519E+05   6.24555522617191076E+05
             6.24804982426644303E+05   6.25054082270975923E+05   6.25302881817821297E+05   6.25552758465392748E+05   6.25798130957623944E+05
             6.26042182827754295E+05   6.26284629836027976E+05   6.26525345098442165E+05   6.26764234184351517E+05   6.27001298551575397E+05
             6.27236714899416314E+05   6.27470695337372832E+05   6.27703412540615187E+05   6.27935239609637065E+05   6.28166928955746815E+05
             6.28399366297138738E+05   6.28633286177795380E+05   6.28869353589251172E+05   6.29108346153745078E+05   6.29351109139740118E+05
             6.29601728759357822E+05   6.29854875342868967E+05   6.30111979977765819E+05   6.30373809962510481E+05   6.30641197196164983E+05
             6.30914690293741995E+05   6.31193195790640544E+05   6.31474991881124908E+05   6.31759077946023550E+05   6.32045181540438905E+05
             6.32333164851659909E+05   6.32622727348322398E+05   6.32913487821707735E+05   6.33205215986622265E+05   6.33497890559263295E+05
             6.33791586288648192E+05   6.34086851329167723E+05   6.34385530936569441E+05   6.34689733313970501E+05   6.34997786044956651E+05
             6.35302206639231066E+05   6.35595480416036793E+05   6.35883127290876349E+05   0.00000000000000000E+00   0.00000000000000000E+00
             0.00000000000000000E+00   0.00000000000000000E+00   0.00000000000000000E+00
 ETA=   36   6.21788302946340758E+05   6.21964106365478365E+05   6.22144765823907801E+05   6.22331635184501065E+05   6.22525435316270683E+05
             6.22726537967993878E+05   6.22934991035682033E+05   6.23150472403844935E+05   6.23372349094475503E+05   6.23599856223498587E+05
             6.23832281598214759E+05   6.24069036395335104E+05   6.24309562006784370E+05   6.24553129802852985E+05   6.24798714611490723E+05
             6.25045151814020704E+05   6.25291589518632158E+05   6.25538002643134096E+05   6.25785543336311006E+05   6.26029126237975550E+05
             6.26271475775371655E+05   6.26512257221420761E+05   6.26751274265222135E+05   6.26988369489082601E+05   6.27223506503331359E+05
             6.27456849394767196E+05   6.27688606836968451E+05   6.27918941591197508E+05   6.28148207623809692E+05   6.28377132352154120E+05
             6.28606571864736034E+05   6.28837239972276147E+05   6.29069827193665435E+05   6.29305203102029278E+05   6.29544335615359247E+05
             6.29791725029578432E+05   6.30041554495319491E+05   6.30295360234734486E+05   6.30553943574449746E+05   6.30818194213714451E+05
             6.31088761592630530E+05   6.31364589966550702E+05   6.31643918476431398E+05   6.31925664769676747E+05   6.32209480151981232E+05
             6.32495179655599757E+05   6.32782419035496423E+05   6.33070753526696120E+05   6.33359891774746007E+05   6.33649786071939161E+05
             6.33940545884254854E+05   6.34232909787362674E+05   6.34529252006840077E+05   6.34832570778834866E+05   6.35141997670630692E+05
             6.35449799425360165E+05   6.35743689152729465E+05   0.00000000000000000E+00   0.00000000000000000E+00   0.00000000000000000E+00
             0.00000000000000000E+00   0.00000000000000000E+00   0.00000000000000000E+00
 ETA=   37   6.22082473228200572E+05   6.22253174387146952E+05   6.22429264398099273E+05   6.22611977636808413E+05   6.22801867389598163E+05
             6.22999140233866870E+05   6.23203733647954417E+05   6.23415293414740008E+05   6.23633221111766528E+05   6.23856814989302540E+05
             6.24085416234534001E+05   6.24318465495541110E+05   6.24555424977529328E+05   6.24795605766252265E+05   6.25038052272916539E+05
             6.25281671856625704E+05   6.25525625596632482E+05   6.25769770607463550E+05   6.26014937421393464E+05   6.26256918932819390E+05
             6.26497780361577868E+05   6.26737134091672371E+05   6.26974711700432701E+05   6.27210289144420880E+05   6.27443785783216590E+05
             6.27675344893205329E+05   6.27905165994070121E+05   6.28133399830141105E+05   6.28360376464096480E+05   6.28586785790426540E+05
             6.28813439215153456E+05   6.29041021722777048E+05   6.29270253823479638E+05   6.29502113087694277E+05   6.29737709598968620E+05
             6.29981963315860135E+05   6.30228578723981977E+05   6.30479189891000977E+05   6.30734621325755492E+05   6.30995807719840435E+05
             6.31263500769482576E+05   6.31536713266801089E+05   6.31813671241514967E+05   6.32093201808970887E+05   6.32374855891013751E+05
             6.32658390723858727E+05   6.32945128280911595E+05   6.33231535926568322E+05   6.33518272203681408E+05   6.33805650227213860E+05
             6.34094187075272202E+05   6.34385107448933879E+05   6.34680565552331740E+05   6.34982691090776585E+05   6.35291515050220070E+05
             6.35600339009663556E+05   0.00000000000000000E+00   0.00000000000000000E+00   0.00000000000000000E+00   0.00000000000000000E+00
             0.00000000000000000E+00   0.00000000000000000E+00   0.00000000000000000E+00
 ETA=   38   6.22372987898724619E+05   6.22537007281755796E+05   6.22707976385729853E+05   6.22886437821930158E+05   6.23072519147032290E+05
             6.23266154920571367E+05   6.23467126226501772E+05   6.23675021850844729E+05   6.23889260581364739E+05   6.24109193332951167E+05
             6.24334212346251123E+05   6.24563791309988941E+05   6.24797417574983905E+05   6.25034442402798799E+05   6.25273974980034283E+05
             6.25514987458628952E+05   6.25756649255380384E+05   6.25998698631571722E+05   6.26241646894438658E+05   6.26482205030651530E+05
             6.26721769358986174E+05   6.26959900144365965E+05   6.27196258149053552E+05   6.27430552986190422E+05   6.27662656387703144E+05
             6.27892684078486287E+05   6.28120820790150319E+05   6.28347202659410890E+05   6.28572130771116936E+05   6.28796245077911532E+05
             6.29020297744613490E+05   6.29244937788590556E+05   6.29470922023448860E+05   6.29699355267433333E+05   6.29931513252647477E+05
             6.30172739087644732E+05   6.30416273394355318E+05   6.30663839119987562E+05   6.30916270633207168E+05   6.31174530069272732E+05
             6.31439468072917312E+05   6.31710199754425092E+05   6.31984967776979902E+05   6.32262497049826896E+05   6.32542207663975540E+05
             6.32823784845286631E+05   6.33109004931018688E+05   6.33393305091238348E+05   6.33677544018552639E+05   6.33962152726892964E+05
             6.34247795669393148E+05   6.34535940391042037E+05   6.34829013444601558E+05   6.35129666113975807E+05   6.35439358426211867E+05
             0.00000000000000000E+00   0.00000000000000000E+00   0.00000000000000000E+00   0.00000000000000000E+00   0.00000000000000000E+00
             0.00000000000000000E+00   0.00000000000000000E+00   0.00000000000000000E+00
 ETA=   39   6.22657193845324684E+05   6.22814398999102763E+05   6.22980469734747778E+05   6.23154984688914381E+05   6.23337563200548640E+05
             6.23527856967948726E+05   6.23725497058076551E+05   6.23930017641653190E+05   6.24140850950938067E+05   6.24357396208015620E+05
             6.24579095871543279E+05   6.24805459200522513E+05   6.25036001825195970E+05   6.25270115683226380E+05   6.25506970621343236E+05
             6.25745597341637476E+05   6.25985174380354933E+05   6.26225342059776420E+05   6.26466354027436930E+05   6.26705669235529262E+05
             6.26944116780862911E+05   6.27181207588156918E+05   6.27416536083374405E+05   6.27649749105069553E+05   6.27880670282308478E+05
             6.28109383192194742E+05   6.28336052548295120E+05   6.28560796001264593E+05   6.28783879599847598E+05   6.29005881741397898E+05
             6.29227482406754978E+05   6.29449288269439712E+05   6.29672099830682739E+05   6.29897172020145925E+05   6.30125974576594075E+05
             6.30364309861748712E+05   6.30604917124323430E+05   6.30849615642593359E+05   6.31099230286149541E+05   6.31354727966755861E+05
             6.31617055033426965E+05   6.31885466933355550E+05   6.32158252483514603E+05   6.32434013406976126E+05   6.32711994573597331E+05
             6.32991782500038506E+05   6.33275110832288396E+05   6.33557138036792399E+05   6.33838687336073024E+05   6.34120155428417143E+05
             6.34402193520673201E+05   6.34686350276630488E+05   6.34975361638093833E+05   6.35272771494257264E+05   6.35581985371497460E+05
             0.00000000000000000E+00   0.00000000000000000E+00   0.00000000000000000E+00   0.00000000000000000E+00   0.00000000000000000E+00
             0.00000000000000000E+00   0.00000000000000000E+00   0.00000000000000000E+00
 ETA=   40   6.22931745621365262E+05   6.23083966692822054E+05   6.23246320850051241E+05   6.23417659721509321E+05   6.23597261627982254E+05
             6.23784611117979395E+05   6.23979257891949848E+05   6.24180712928558351E+05   6.24388431507420493E+05   6.24601863827397930E+05
             6.24820505256231176E+05   6.25043904455318931E+05   6.25271609958732035E+05   6.25503057499461342E+05   6.25737474340524524E+05
             6.25973940556709771E+05   6.26211642540890258E+05   6.26450148081337335E+05   6.26689519464382087E+05   6.26927769349608570E+05
             6.27165274450367084E+05   6.27401500311290612E+05   6.27635981596544501E+05   6.27868306312473142E+05   6.28098249817203498E+05
             6.28325862034535268E+05   6.28551283124388661E+05   6.28774603216313408E+05   6.28996042607080075E+05   6.29216108209876576E+05
             6.29435397496806690E+05   6.29654463352766819E+05   6.29874152410463896E+05   6.30095899931082502E+05   6.30321409092658898E+05
             6.30556892420962919E+05   6.30794724321383517E+05   6.31036779114311561E+05   6.31283823616620502E+05   6.31536780349448789E+05
             6.31796663998753764E+05   6.32062911418734468E+05   6.32333897813387448E+05   6.32608079272249015E+05   6.32884469170886208E+05
             6.33162514323677868E+05   6.33443996766709723E+05   6.33723622878653812E+05   6.34002178275781218E+05   6.34279947060603881E+05
             6.34557408551928354E+05   6.34835937761328882E+05   6.35118264244241407E+05   6.35408725937337615E+05   0.00000000000000000E+00
             0.00000000000000000E+00   0.00000000000000000E+00   0.00000000000000000E+00   0.00000000000000000E+00   0.00000000000000000E+00
             0.00000000000000000E+00   0.00000000000000000E+00   0.00000000000000000E+00
 ETA=   41   0.00000000000000000E+00   6.23345013721049298E+05   6.23505486186649185E+05   6.23674687570425682E+05   6.23851955026518670E+05
             6.24036808995604631E+05   6.24228821557894582E+05   6.24427525123315514E+05   6.24632412551951595E+05   6.24842991638869629E+05
             6.25058816791734076E+05   6.25279482268169173E+05   6.25504577522085048E+05   6.25733590102773858E+05   6.25965802937854081E+05
             6.26200330984678119E+05   6.26436361334427027E+05   6.26673412439697073E+05   6.26911402572269202E+05   6.27148755618986208E+05
             6.27385489466599189E+05   6.27621030498022330E+05   6.27854863105335622E+05   6.28086512575398432E+05   6.28315697998165386E+05
             6.28542446480359416E+05   6.28766877479700954E+05   6.28989028805461247E+05   6.29209049333456205E+05   6.29427374893825967E+05
             6.29644520118925371E+05   6.29860940817584051E+05   6.30077501086659846E+05   6.30295878962288029E+05   6.30518093958665500E+05
             6.30750568758420646E+05   6.30985805313891964E+05   6.31225547870885348E+05   6.31470421889692778E+05   6.31721208639992168E+05
             6.31978903283877997E+05   6.32243164393675630E+05   6.32512524019610486E+05   6.32785287567392108E+05   6.33060180114195216E+05
             6.33336458241535467E+05   6.33616375282566180E+05   6.33893515017306199E+05   6.34168725272177602E+05   6.34442112800027127E+05
             6.34713778701586416E+05   6.34984542373675853E+05   6.35256315906918608E+05   0.00000000000000000E+00   0.00000000000000000E+00
             0.00000000000000000E+00   0.00000000000000000E+00   0.00000000000000000E+00   0.00000000000000000E+00   0.00000000000000000E+00
             0.00000000000000000E+00   0.00000000000000000E+00   0.00000000000000000E+00
 ETA=   42   6.23446441534780315E+05   6.23598465828344808E+05   6.23758585545016686E+05   6.23926537846737774E+05   6.24102042924396577E+05
             6.24284816733984277E+05   6.24474535488263587E+05   6.24670785612078034E+05   6.24873106261849171E+05   6.25081068968898384E+05
             6.25294294862587354E+05   6.25512431038445793E+05   6.25735117076786701E+05   6.25961902538936818E+05   6.26192126001175144E+05
             6.26424922781610861E+05   6.26659474977193982E+05   6.26895284625235945E+05   6.27132186076574028E+05   6.27368859997012303E+05
             6.27605034232685342E+05   6.27840114084208384E+05   6.28073556523877312E+05   6.28304785954724182E+05   6.28533417396216188E+05
             6.28759522304791491E+05   6.28983250778685440E+05   6.29204511269042967E+05   6.29423304872734472E+05   6.29640049780845875E+05
             6.29855232810204499E+05   6.30069036419602577E+05   6.30282174613546580E+05   6.30496774666164536E+05   6.30715415703851846E+05
             6.30945187643919606E+05   6.31178262009196682E+05   6.31416188318586908E+05   6.31659454349020263E+05   6.31908601169226225E+05
             6.32164485208405647E+05   6.32427029928178061E+05   6.32695022209129762E+05   6.32966633761863224E+05   6.33240252621296793E+05
             6.33514888996624271E+05   6.33793490196954575E+05   6.34068142304908251E+05   6.34339768479337799E+05   6.34608194772110670E+05
             6.34872892296095146E+05   6.35133870007185847E+05   6.35394834023451083E+05   0.00000000000000000E+00   0.00000000000000000E+00
             0.00000000000000000E+00   0.00000000000000000E+00   0.00000000000000000E+00   0.00000000000000000E+00   0.00000000000000000E+00
             0.00000000000000000E+00   0.00000000000000000E+00   0.00000000000000000E+00
 ETA=   43   6.23692340740818181E+05   6.23846490414167405E+05   6.24006810687758378E+05   6.24173947109174682E+05   6.24348045334444148E+05
             6.24529047268028837E+05   6.24716752530592494E+05   6.24910805226718774E+05   6.25110788569348282E+05   6.25316341579744243E+05
             6.25527158854143345E+05   6.25742944364154711E+05   6.25963390034827637E+05   6.26188110000929679E+05   6.26416500455837231E+05
             6.26647717437283834E+05   6.26880948119469802E+05   6.27115737458198098E+05   6.27352114270066726E+05   6.27588556439529639E+05
             6.27824523541165050E+05   6.28059486801338848E+05   6.28292967972288723E+05   6.28524138595061377E+05   6.28752283544278587E+05
             6.28977805853656377E+05   6.29201129579745932E+05   6.29421763348675333E+05   6.29639292008091230E+05   6.29854376173873432E+05
             6.30067812605448533E+05   6.30278869204731076E+05   6.30487378208375187E+05   6.30696695566986687E+05   6.30910662416739389E+05
             6.31140839072599076E+05   6.31372659055880271E+05   6.31609337765600183E+05   6.31851529463777319E+05   6.32099519025132642E+05
             6.32353984823928913E+05   6.32615176892753458E+05   6.32882225493757287E+05   6.33153186236883863E+05   6.33426069980195607E+05
             6.33699580069761490E+05   6.33976903526875190E+05   6.34249212388176122E+05   6.34517303979991935E+05   6.34780602263776353E+05
             6.35037510920400382E+05   6.35284265858483384E+05   0.00000000000000000E+00   0.00000000000000000E+00   0.00000000000000000E+00
             0.00000000000000000E+00   0.00000000000000000E+00   0.00000000000000000E+00   0.00000000000000000E+00   0.00000000000000000E+00
             0.00000000000000000E+00   0.00000000000000000E+00   0.00000000000000000E+00
 ETA=   44   6.23936468265804462E+05   6.24091342801556224E+05   6.24251405158929643E+05   6.24417664277164266E+05   6.24590457744539948E+05
             6.24769861520546954E+05   6.24955758661048952E+05   6.25147819618177949E+05   6.25345652245738194E+05   6.25548968140794896E+05
             6.25757543814601959E+05   6.25971136697797454E+05   6.26189480487342458E+05   6.26412247309836210E+05   6.26638898067838396E+05
             6.26868620340682566E+05   6.27100601453514537E+05   6.27334352442161413E+05   6.27569721579016768E+05   6.27805573904837249E+05
             6.28041170635784045E+05   6.28275932202704949E+05   6.28509307855458464E+05   6.28740465216685319E+05   6.28968687560274382E+05
             6.29194316340805031E+05   6.29417676904634223E+05   6.29638169581267517E+05   6.29855292953801109E+05   6.30069504994634190E+05
             6.30281437000070466E+05   6.30490310997662018E+05   6.30695959589880542E+05   6.30902090693440405E+05   6.31113023913811310E+05
             6.31340064328672132E+05   6.31570241344631300E+05   6.31805915357578546E+05   6.32047332209804328E+05   6.32294413840003661E+05
             6.32547726905080257E+05   6.32807929168406175E+05   6.33074550838025520E+05   6.33345537138804211E+05   6.33618494830865762E+05
             6.33891758739992627E+05   6.34167851550860447E+05   6.34438175380603992E+05   6.34703150198262767E+05   6.34962045422735973E+05
             6.35213808440523571E+05   0.00000000000000000E+00   0.00000000000000000E+00   0.00000000000000000E+00   0.00000000000000000E+00
             0.00000000000000000E+00   0.00000000000000000E+00   0.00000000000000000E+00   0.00000000000000000E+00   0.00000000000000000E+00
             0.00000000000000000E+00   0.00000000000000000E+00   0.00000000000000000E+00
 ETA=   45   6.24180316589526366E+05   6.24333836037864443E+05   6.24492685538475169E+05   6.24657723350076703E+05   6.24829132904225728E+05
             6.25007009483156609E+05   6.25191279493796290E+05   6.25381555394558120E+05   6.25577397761604981E+05   6.25778619821776869E+05
             6.25985114263991243E+05   6.26196676698134979E+05   6.26413062108652084E+05   6.26634016164111323E+05   6.26859099079161067E+05
             6.27087501999838511E+05   6.27318371679187985E+05   6.27551203019202221E+05   6.27785748878617305E+05   6.28021147052292828E+05
             6.28256511953819543E+05   6.28491222848238423E+05   6.28724666954855202E+05   6.28956006925719907E+05   6.29184526124852011E+05
             6.29410525667832582E+05   6.29634228737679310E+05   6.29854846001171973E+05   6.30071723122729687E+05   6.30285124915086082E+05
[...]
             0.00000000000000000E+00   0.00000000000000000E+00   0.00000000000000000E+00   0.00000000000000000E+00   0.00000000000000000E+00
             0.00000000000000000E+00   0.00000000000000000E+00   0.00000000000000000E+00
 ETA=  213   0.00000000000000000E+00   5.08153709967448004E+06   5.08150330026149098E+06   5.08146743911836483E+06   5.08142964333529864E+06
             5.08139017599619087E+06   5.08134934726138506E+06   5.08130745274916664E+06   5.08126475243850984E+06   5.08122147580358386E+06
             5.08117782799909450E+06   5.08113398933028802E+06   5.08109010913143400E+06   5.08104629841538705E+06   5.08100262614068389E+06
             5.08095912171256356E+06   5.08091578192361910E+06   5.08087256351076160E+06   5.08082934810737334E+06   5.08078592743728496E+06
             5.08074207027607597E+06   5.08069761182075273E+06   5.08065246528562251E+06   5.08060662126510497E+06   5.08056024486887734E+06
             5.08051373559912574E+06   5.08046757064322010E+06   0.00000000000000000E+00   0.00000000000000000E+00   0.00000000000000000E+00
             0.00000000000000000E+00   0.00000000000000000E+00   0.00000000000000000E+00   0.00000000000000000E+00   0.00000000000000000E+00
             0.00000000000000000E+00   0.00000000000000000E+00   0.00000000000000000E+00   0.00000000000000000E+00   0.00000000000000000E+00
             0.00000000000000000E+00   0.00000000000000000E+00   0.00000000000000000E+00   0.00000000000000000E+00   0.00000000000000000E+00
             0.00000000000000000E+00   0.00000000000000000E+00   0.00000000000000000E+00   0.00000000000000000E+00   0.00000000000000000E+00
             0.00000000000000000E+00   0.00000000000000000E+00   0.00000000000000000E+00   0.00000000000000000E+00   0.00000000000000000E+00
             0.00000000000000000E+00   0.00000000000000000E+00   0.00000000000000000E+00   0.00000000000000000E+00   0.00000000000000000E+00
             0.00000000000000000E+00   0.00000000000000000E+00   0.00000000000000000E+00
 ETA=  214   0.00000000000000000E+00   5.08172264875370171E+06   5.08168807073268574E+06   5.08165086984920129E+06   5.08161133569509815E+06
             5.08156988538649399E+06   5.08152695081289206E+06   5.08148291466658749E+06   5.08143809647990018E+06   5.08139276594338939E+06
             5.08134715417899843E+06   5.08130145600819495E+06   5.08125582565017976E+06   5.08121037073753309E+06   5.08116514983250853E+06
             5.08112017701882124E+06   5.08107543156367261E+06   5.08103084582144115E+06   5.08098625354927033E+06   5.08094136815442611E+06
             5.08089587510360591E+06   5.08084955000965204E+06   5.08080226300670486E+06   5.08075396967958659E+06   5.08070484393061511E+06
             5.08065537090341840E+06   5.08060616076138988E+06   0.00000000000000000E+00   0.00000000000000000E+00   0.00000000000000000E+00
             0.00000000000000000E+00   0.00000000000000000E+00   0.00000000000000000E+00   0.00000000000000000E+00   0.00000000000000000E+00
             0.00000000000000000E+00   0.00000000000000000E+00   0.00000000000000000E+00   0.00000000000000000E+00   0.00000000000000000E+00
             0.00000000000000000E+00   0.00000000000000000E+00   0.00000000000000000E+00   0.00000000000000000E+00   0.00000000000000000E+00
             0.00000000000000000E+00   0.00000000000000000E+00   0.00000000000000000E+00   0.00000000000000000E+00   0.00000000000000000E+00
             0.00000000000000000E+00   0.00000000000000000E+00   0.00000000000000000E+00   0.00000000000000000E+00   0.00000000000000000E+00
             0.00000000000000000E+00   0.00000000000000000E+00   0.00000000000000000E+00   0.00000000000000000E+00   0.00000000000000000E+00
             0.00000000000000000E+00   0.00000000000000000E+00   0.00000000000000000E+00
 ETA=  215   0.00000000000000000E+00   5.08190571024632175E+06   5.08187016880166158E+06   5.08183135424634535E+06   5.08178979162311833E+06
             5.08174609653417766E+06   5.08170084223075304E+06   5.08165450414986722E+06   5.08160746041494142E+06   5.08156001653103624E+06
             5.08151242330914829E+06   5.08146488299151417E+06   5.08141754787541926E+06   5.08137051686639339E+06   5.08132383504354209E+06
             5.08127750073326007E+06   5.08123147790094186E+06   5.08118567795704305E+06   5.08113988895454630E+06   5.08109374721278530E+06
             5.08104685856141057E+06   5.08099894348553754E+06   5.08094982426467538E+06   5.08089940118936263E+06   5.08084782542233542E+06
             5.08079562102523167E+06   5.08074342140969355E+06   0.00000000000000000E+00   0.00000000000000000E+00   0.00000000000000000E+00
             0.00000000000000000E+00   0.00000000000000000E+00   0.00000000000000000E+00   0.00000000000000000E+00   0.00000000000000000E+00
             0.00000000000000000E+00   0.00000000000000000E+00   0.00000000000000000E+00   0.00000000000000000E+00   0.00000000000000000E+00
             0.00000000000000000E+00   0.00000000000000000E+00   0.00000000000000000E+00   0.00000000000000000E+00   0.00000000000000000E+00
             0.00000000000000000E+00   0.00000000000000000E+00   0.00000000000000000E+00   0.00000000000000000E+00   0.00000000000000000E+00
             0.00000000000000000E+00   0.00000000000000000E+00   0.00000000000000000E+00   0.00000000000000000E+00   0.00000000000000000E+00
             0.00000000000000000E+00   0.00000000000000000E+00   0.00000000000000000E+00   0.00000000000000000E+00   0.00000000000000000E+00
             0.00000000000000000E+00   0.00000000000000000E+00   0.00000000000000000E+00
 ETA=  216   0.00000000000000000E+00   5.08208607049500756E+06   5.08204908403881639E+06   5.08200815246372577E+06   5.08196412145080976E+06
             5.08191783783509582E+06   5.08187001956211962E+06   5.08182122513188794E+06   5.08177187652003765E+06   5.08172229901266191E+06
             5.08167274831282347E+06   5.08162342179848067E+06   5.08157446061821282E+06   5.08152594911748078E+06   5.08147791648205649E+06
             5.08143034615189396E+06   5.08138319060347416E+06   5.08133634587192722E+06   5.08128956061484292E+06   5.08124240287986584E+06
             5.08119441281226184E+06   5.08114527196640708E+06   5.08109475998422969E+06   5.08104270928638056E+06   5.08098922135810554E+06
             5.08093478591612726E+06   5.08087973406599555E+06   0.00000000000000000E+00   0.00000000000000000E+00   0.00000000000000000E+00
             0.00000000000000000E+00   0.00000000000000000E+00   0.00000000000000000E+00   0.00000000000000000E+00   0.00000000000000000E+00
             0.00000000000000000E+00   0.00000000000000000E+00   0.00000000000000000E+00   0.00000000000000000E+00   0.00000000000000000E+00
             0.00000000000000000E+00   0.00000000000000000E+00   0.00000000000000000E+00   0.00000000000000000E+00   0.00000000000000000E+00
             0.00000000000000000E+00   0.00000000000000000E+00   0.00000000000000000E+00   0.00000000000000000E+00   0.00000000000000000E+00
             0.00000000000000000E+00   0.00000000000000000E+00   0.00000000000000000E+00   0.00000000000000000E+00   0.00000000000000000E+00
             0.00000000000000000E+00   0.00000000000000000E+00   0.00000000000000000E+00   0.00000000000000000E+00   0.00000000000000000E+00
             0.00000000000000000E+00   0.00000000000000000E+00   0.00000000000000000E+00
 ETA=  217   0.00000000000000000E+00   5.08226534806002118E+06   5.08222596439473704E+06   5.08218209700283967E+06   5.08213496169631928E+06
             5.08208562644616328E+06   5.08203492739883531E+06   5.08198347594371065E+06   5.08193170797322504E+06   5.08187994215875771E+06
             5.08182841876046546E+06   5.08177731617977563E+06   5.08172675559907220E+06   5.08167680234060716E+06   5.08162746868370380E+06
             5.08157872500664368E+06   5.08153051654447429E+06   5.08148272991993278E+06   5.08143508219783567E+06   5.08138708507459518E+06
             5.08133823230178654E+06   5.08128820185599290E+06   5.08123676113606617E+06   5.08118370171846077E+06   5.08112913828093372E+06
             5.08107362713919766E+06   0.00000000000000000E+00   0.00000000000000000E+00   0.00000000000000000E+00   0.00000000000000000E+00
             0.00000000000000000E+00   0.00000000000000000E+00   0.00000000000000000E+00   0.00000000000000000E+00   0.00000000000000000E+00
             0.00000000000000000E+00   0.00000000000000000E+00   0.00000000000000000E+00   0.00000000000000000E+00   0.00000000000000000E+00
             0.00000000000000000E+00   0.00000000000000000E+00   0.00000000000000000E+00   0.00000000000000000E+00   0.00000000000000000E+00
             0.00000000000000000E+00   0.00000000000000000E+00   0.00000000000000000E+00   0.00000000000000000E+00   0.00000000000000000E+00
             0.00000000000000000E+00   0.00000000000000000E+00   0.00000000000000000E+00   0.00000000000000000E+00   0.00000000000000000E+00
             0.00000000000000000E+00   0.00000000000000000E+00   0.00000000000000000E+00   0.00000000000000000E+00   0.00000000000000000E+00
             0.00000000000000000E+00   0.00000000000000000E+00   0.00000000000000000E+00
 ETA=  218   5.08248313825173676E+06   5.08244587798100524E+06   5.08240247776841931E+06   5.08235452085339185E+06   5.08230346589370258E+06
             5.08225051205118932E+06   5.08219654975386150E+06   5.08214219015527796E+06   5.08208783713213634E+06   5.08203376812749263E+06
             5.08198018527656607E+06   5.08192723367534298E+06   5.08187500554455910E+06   5.08182354176250938E+06   5.08177283435581066E+06
             5.08172283889831696E+06   5.08167349426059704E+06   5.08162468225141615E+06   5.08157609666881338E+06   5.08152720108253602E+06
             5.08147744713932741E+06   5.08142659122513887E+06   5.08137447151062451E+06   5.08132094621003792E+06   5.08126643206877448E+06
             5.08121228528286610E+06   0.00000000000000000E+00   0.00000000000000000E+00   0.00000000000000000E+00   0.00000000000000000E+00
             0.00000000000000000E+00   0.00000000000000000E+00   0.00000000000000000E+00   0.00000000000000000E+00   0.00000000000000000E+00
             0.00000000000000000E+00   0.00000000000000000E+00   0.00000000000000000E+00   0.00000000000000000E+00   0.00000000000000000E+00
             0.00000000000000000E+00   0.00000000000000000E+00   0.00000000000000000E+00   0.00000000000000000E+00   0.00000000000000000E+00
             0.00000000000000000E+00   0.00000000000000000E+00   0.00000000000000000E+00   0.00000000000000000E+00   0.00000000000000000E+00
             0.00000000000000000E+00   0.00000000000000000E+00   0.00000000000000000E+00   0.00000000000000000E+00   0.00000000000000000E+00
             0.00000000000000000E+00   0.00000000000000000E+00   0.00000000000000000E+00   0.00000000000000000E+00   0.00000000000000000E+00
             0.00000000000000000E+00   0.00000000000000000E+00   0.00000000000000000E+00
 ETA=  219   5.08267236282016337E+06   5.08262857538554352E+06   5.08257919274665415E+06   5.08252582143456582E+06   5.08246994263682794E+06
             5.08241276297629066E+06   5.08235514797136374E+06   5.08229763362119999E+06   5.08224052568299975E+06   5.08218401918807812E+06
             5.08212825675823726E+06   5.08207333584453538E+06   5.08201930791857280E+06   5.08196617942936160E+06   5.08191391154234577E+06
             5.08186243375861272E+06   5.08181167297675833E+06   5.08176151358168013E+06   5.08171164556577709E+06   5.08166148354294430E+06
             5.08161030572721548E+06   5.08155817925426271E+06   5.08150516353842709E+06   5.08145130958729796E+06   5.08139779415120371E+06
             5.08135056629701145E+06   0.00000000000000000E+00   0.00000000000000000E+00   0.00000000000000000E+00   0.00000000000000000E+00
             0.00000000000000000E+00   0.00000000000000000E+00   0.00000000000000000E+00   0.00000000000000000E+00   0.00000000000000000E+00
             0.00000000000000000E+00   0.00000000000000000E+00   0.00000000000000000E+00   0.00000000000000000E+00   0.00000000000000000E+00
             0.00000000000000000E+00   0.00000000000000000E+00   0.00000000000000000E+00   0.00000000000000000E+00   0.00000000000000000E+00
             0.00000000000000000E+00   0.00000000000000000E+00   0.00000000000000000E+00   0.00000000000000000E+00   0.00000000000000000E+00
             0.00000000000000000E+00   0.00000000000000000E+00   0.00000000000000000E+00   0.00000000000000000E+00   0.00000000000000000E+00
             0.00000000000000000E+00   0.00000000000000000E+00   0.00000000000000000E+00   0.00000000000000000E+00   0.00000000000000000E+00
             0.00000000000000000E+00   0.00000000000000000E+00   0.00000000000000000E+00
 ETA=  220   5.08286577110660262E+06   5.08281275643789396E+06   5.08275553526422940E+06   5.08269547459832486E+06   5.08263388014312927E+06
             5.08257189170764945E+06   5.08251029937653895E+06   5.08244945927960426E+06   5.08238947748505604E+06   5.08233042647040635E+06
             5.08227238260920439E+06   5.08221538554741815E+06   5.08215943259950448E+06   5.08210448511870019E+06   5.08205045774337929E+06
             5.08199723027857300E+06   5.08194470684480388E+06   5.08189280379904807E+06   5.08184129292856716E+06   5.08178962415792421E+06
             5.08173596866210364E+06   5.08168162784189079E+06   5.08162703730655089E+06   5.08157216218114551E+06   5.08151664603459835E+06
             0.00000000000000000E+00   0.00000000000000000E+00   0.00000000000000000E+00   0.00000000000000000E+00   0.00000000000000000E+00
             0.00000000000000000E+00   0.00000000000000000E+00   0.00000000000000000E+00   0.00000000000000000E+00   0.00000000000000000E+00
             0.00000000000000000E+00   0.00000000000000000E+00   0.00000000000000000E+00   0.00000000000000000E+00   0.00000000000000000E+00
             0.00000000000000000E+00   0.00000000000000000E+00   0.00000000000000000E+00   0.00000000000000000E+00   0.00000000000000000E+00
             0.00000000000000000E+00   0.00000000000000000E+00   0.00000000000000000E+00   0.00000000000000000E+00   0.00000000000000000E+00
             0.00000000000000000E+00   0.00000000000000000E+00   0.00000000000000000E+00   0.00000000000000000E+00   0.00000000000000000E+00
             0.00000000000000000E+00   0.00000000000000000E+00   0.00000000000000000E+00   0.00000000000000000E+00   0.00000000000000000E+00
             0.00000000000000000E+00   0.00000000000000000E+00   0.00000000000000000E+00
 ETA=  221   5.08306130675615650E+06   5.08299703066989873E+06   5.08293055082898587E+06   5.08286277165989578E+06   5.08279464330049511E+06
             5.08272732589528896E+06   5.08266158916749991E+06   5.08259741847313382E+06   5.08253452994291484E+06   5.08247286638477258E+06
             5.08241248528575245E+06   5.08235336600159574E+06   5.08229543657754548E+06   5.08223861768650170E+06   5.08218276901559718E+06
             5.08212767499391362E+06   5.08207319303351454E+06   5.08201934738491848E+06   5.08196628080616612E+06   5.08191474915439263E+06
             5.08185649121671822E+06   0.00000000000000000E+00   0.00000000000000000E+00   0.00000000000000000E+00   0.00000000000000000E+00
             0.00000000000000000E+00   0.00000000000000000E+00   0.00000000000000000E+00   0.00000000000000000E+00   0.00000000000000000E+00
             0.00000000000000000E+00   0.00000000000000000E+00   0.00000000000000000E+00   0.00000000000000000E+00   0.00000000000000000E+00
             0.00000000000000000E+00   0.00000000000000000E+00   0.00000000000000000E+00   0.00000000000000000E+00   0.00000000000000000E+00
             0.00000000000000000E+00   0.00000000000000000E+00   0.00000000000000000E+00   0.00000000000000000E+00   0.00000000000000000E+00
             0.00000000000000000E+00   0.00000000000000000E+00   0.00000000000000000E+00   0.00000000000000000E+00   0.00000000000000000E+00
             0.00000000000000000E+00   0.00000000000000000E+00   0.00000000000000000E+00   0.00000000000000000E+00   0.00000000000000000E+00
             0.00000000000000000E+00   0.00000000000000000E+00   0.00000000000000000E+00   0.00000000000000000E+00   0.00000000000000000E+00
             0.00000000000000000E+00   0.00000000000000000E+00   0.00000000000000000E+00
 ETA=  222   5.08325720560986921E+06   5.08317999201788846E+06   5.08310343070481531E+06   5.08302731265101582E+06   5.08295180933068413E+06
             5.08287864338568039E+06   5.08280893580724485E+06   5.08274178210148867E+06   5.08267604869920295E+06   5.08261170081974287E+06
             5.08254898214554228E+06   0.00000000000000000E+00   5.08242791218057461E+06   5.08236930930741038E+06   5.08231180418177601E+06
             5.08225496109321620E+06   5.08219848590752110E+06   5.08214255806266889E+06   0.00000000000000000E+00   0.00000000000000000E+00
             0.00000000000000000E+00   0.00000000000000000E+00   0.00000000000000000E+00   0.00000000000000000E+00   0.00000000000000000E+00
             0.00000000000000000E+00   0.00000000000000000E+00   0.00000000000000000E+00   0.00000000000000000E+00   0.00000000000000000E+00
             0.00000000000000000E+00   0.00000000000000000E+00   0.00000000000000000E+00   0.00000000000000000E+00   0.00000000000000000E+00
             0.00000000000000000E+00   0.00000000000000000E+00   0.00000000000000000E+00   0.00000000000000000E+00   0.00000000000000000E+00
             0.00000000000000000E+00   0.00000000000000000E+00   0.00000000000000000E+00   0.00000000000000000E+00   0.00000000000000000E+00
             0.00000000000000000E+00   0.00000000000000000E+00   0.00000000000000000E+00   0.00000000000000000E+00   0.00000000000000000E+00
             0.00000000000000000E+00   0.00000000000000000E+00   0.00000000000000000E+00   0.00000000000000000E+00   0.00000000000000000E+00
             0.00000000000000000E+00   0.00000000000000000E+00   0.00000000000000000E+00   0.00000000000000000E+00   0.00000000000000000E+00
             0.00000000000000000E+00   0.00000000000000000E+00   0.00000000000000000E+00
 ETA=  223   0.00000000000000000E+00   0.00000000000000000E+00   0.00000000000000000E+00   0.00000000000000000E+00   0.00000000000000000E+00
             0.00000000000000000E+00   0.00000000000000000E+00   0.00000000000000000E+00   0.00000000000000000E+00   0.00000000000000000E+00
             0.00000000000000000E+00   0.00000000000000000E+00   0.00000000000000000E+00   5.08249759955978300E+06   5.08243888181220554E+06
             5.08238062348450813E+06   5.08232203638182208E+06   5.08226368800236750E+06   0.00000000000000000E+00   0.00000000000000000E+00
             0.00000000000000000E+00   0.00000000000000000E+00   0.00000000000000000E+00   0.00000000000000000E+00   0.00000000000000000E+00
             0.00000000000000000E+00   0.00000000000000000E+00   0.00000000000000000E+00   0.00000000000000000E+00   0.00000000000000000E+00
             0.00000000000000000E+00   0.00000000000000000E+00   0.00000000000000000E+00   0.00000000000000000E+00   0.00000000000000000E+00
             0.00000000000000000E+00   0.00000000000000000E+00   0.00000000000000000E+00   0.00000000000000000E+00   0.00000000000000000E+00
             0.00000000000000000E+00   0.00000000000000000E+00   0.00000000000000000E+00   0.00000000000000000E+00   0.00000000000000000E+00
             0.00000000000000000E+00   0.00000000000000000E+00   0.00000000000000000E+00   0.00000000000000000E+00   0.00000000000000000E+00
             0.00000000000000000E+00   0.00000000000000000E+00   0.00000000000000000E+00   0.00000000000000000E+00   0.00000000000000000E+00
             0.00000000000000000E+00   0.00000000000000000E+00   0.00000000000000000E+00   0.00000000000000000E+00   0.00000000000000000E+00
             0.00000000000000000E+00   0.00000000000000000E+00   0.00000000000000000E+00
