Ident  = #Delft3D-FLOW 3.59.01.57433#
Commnt =                  
Runtxt = #Lake Garda#
         #Developed for the Alplakes project#
Commnt =
Filcco = #garda_grid.grd#
Fmtcco = #FR#
Anglat =  4.5620000e+001
Grdang =  0.0000000e+000
Filgrd = #garda_grid_enclosure.enc#
Fmtgrd = #FR#
MNKmax = 64 224 100
Thick =  7.13266762
         7.13266762
         7.13266762
         7.13266762
         2.85306705
         2.85306705
         2.85306705
         2.85306705
         2.85306705
         1.42653352
         1.42653352
         1.42653352
         1.42653352
         1.42653352
         1.42653352
         1.42653352
         1.42653352
         1.42653352
         1.42653352
         1.42653352
         1.42653352
         1.42653352
         1.42653352
         1.42653352
         1.42653352
         1.42653352
         1.42653352
         1.42653352
         1.42653352
         0.71326676
         0.71326676
         0.71326676
         0.71326676
         0.71326676
         0.71326676
         0.71326676
         0.71326676
         0.71326676
         0.71326676
         0.71326676
         0.71326676
         0.71326676
         0.42796006
         0.42796006
         0.42796006
         0.42796006
         0.42796006
         0.42796006
         0.42796006
         0.42796006
         0.42796006
         0.42796006
         0.42796006
         0.42796006
         0.42796006
         0.42796006
         0.42796006
         0.42796006
         0.42796006
         0.42796006
         0.42796006
         0.42796006
         0.28530670
         0.28530670
         0.28530670
         0.28530670
         0.28530670
         0.28530670
         0.28530670
         0.28530670
         0.28530670
         0.28530670
         0.28530670
         0.28530670
         0.28530670
         0.28530670
         0.28530670
         0.28530670
         0.28530670
         0.28530670
         0.28530670
         0.28530670
         0.28530670
         0.28530670
         0.28530670
         0.28530670
         0.28530670
         0.28530670
         0.28530670
         0.28530670
         0.28530670
         0.28530670
         0.28530670
         0.28530670
         0.28530670
         0.28530670
         0.28530670
         0.28530670
         0.28530670
         0.28530670
Commnt =
Fildep = #garda_depths.dep#
Fmtdep = #FR#
Commnt =
Commnt =                 no. dry points: 
Fildry = #garda_dry_points.dry#
Fmtdry = #FR#
Commnt =                 no. thin dams: 0
Fmttd  = #FR#
Itdate = #2008-03-01#
Tunit  = #M#
Tstart =  6.40200e+04
Tstop  =  3.17460e+05
Dt     =  0.5
Tzone  = 0
Commnt =
Sub1   = # TW #
Sub2   = #   #
Commnt =
Wnsvwp= #Y#
Wndint= #Y#
Zeta0  =  0.0000000e+000
T0     = 8.7449000000e+00
         8.7483000000e+00
         8.7511087591e+00
         8.7657644569e+00
         8.7797930658e+00
         8.8016065694e+00
         8.8146000001e+00
         8.8170535519e+00
         8.8219051096e+00
         8.8262013661e+00
         8.8279397541e+00
         8.8287199455e+00
         8.8374416748e+00
         8.8405000000e+00
         8.8416863014e+00
         8.8438526027e+00
         8.8440555111e+00
         8.8491285064e+00
         8.8521872951e+00
         8.8521500000e+00
         8.8555273972e+00
         8.8616773971e+00
         8.8669027396e+00
         8.8710537950e+00
         8.8718561643e+00
         8.8778437625e+00
         8.8834493148e+00
         8.8912043857e+00
         8.8978710800e+00
         8.9045757057e+00
         8.9096255473e+00
         8.9155365133e+00
         8.9173902051e+00
         8.9211636987e+00
         8.9193297120e+00
         8.9281656451e+00
         8.9294136081e+00
         8.9326935449e+00
         8.9336107072e+00
         8.9367584714e+00
         8.9398615177e+00
         8.9504286976e+00
         8.9579808096e+00
         8.9670195412e+00
         8.9723977185e+00
         8.9738977190e+00
         8.9761249998e+00
         8.9782999996e+00
         8.9810088354e+00
         8.9847588350e+00
         8.9857000000e+00
         8.9871999997e+00
         8.9888869855e+00
         8.9903900219e+00
         8.9902499233e+00
         8.9930688375e+00
         8.9960065789e+00
         8.9965000000e+00
         8.9968157895e+00
         8.9982088814e+00
         8.9985000000e+00
         8.9985000000e+00
         8.9992589041e+00
         8.9995000000e+00
         8.9991489945e+00
         8.9995000000e+00
         9.0014999998e+00
         9.0018574561e+00
         9.0017500000e+00
         9.0025513157e+00
         9.0033999998e+00
         9.0034000000e+00
         9.0044958902e+00
         9.0059519003e+00
         9.0055276317e+00
         9.0105585513e+00
         9.0144999989e+00
         9.0155809207e+00
         9.0173649117e+00
         9.0253947919e+00
         9.0390778462e+00
         9.0729947246e+00
         9.0930041591e+00
         9.1039888115e+00
         9.1192868069e+00
         9.1400939637e+00
         9.1724191813e+00
         9.1954755938e+00
         9.2054967058e+00
         9.2116263706e+00
         9.2166166641e+00
         9.2205013137e+00
         9.2257445027e+00
         9.2319789439e+00
         9.2461988949e+00
         9.2584854323e+00
         9.2767678460e+00
         9.2767678571e+00
         9.2767678571e+00
         9.2767678571e+00
Commnt =                  
Commnt =                 no. open boundaries: 0
Commnt =                  
Ag     =  9.8100000e+000
Rhow   =  1.0000000e+003
Tempw  =  1.5000000e+001
Salw   =  2.0000000e-001
Wstres =  4.4000000e-03 5.0000000e-001 1.0000000e-03 4.5000000e+00 2.0000000e-03 1.0000000e+001
Rhoa   =  1.0000000e+000
Equili = #N#
Tkemod = #K-epsilon   #
Ktemp  = 5
Temint = #Y#
Commnt =                  
Roumet = #C#
Ccofu  =  6.0000000e+001
Ccofv  =  6.0000000e+001
Xlo    =  5.0000000e-004
cFrCon =  1.4000000e-001
Vicouv =  1.0000000e+000
Dicouv =  1.0000000e+000
Htur2d = #N#
Vicoww =  1.0000000e-006
Dicoww =  1.0000000e-009
Irov   = 0
Commnt =                  
Iter   =      2
Dryflp = #YES#
Dpsopt = #MAX#
Dpuopt = #MIN#
Dryflc =  1.0000000e-001
Dco    = -9.9900000e+002
Forfuv = #Y#
Forfww = #Y#
Sigcor = #N#
Trasol = #Cyclic-method#
Momsol = #Cyclic#
Commnt =                  
Commnt =                 no. discharges: 0
Commnt =                 no. observation points: 1
Filsta = #garda_observation_points.obs#
Commnt =                 no. drogues: 0
Commnt =                  
Commnt =                  
Commnt =                 no. cross sections: 0
Commnt =                  
SMhydr = #YYYYY#     
SMderv = #YYYYYY#    
SMproc = #YYYYYYYYYY#
PMhydr = #YYYYYY#    
PMderv = #YYY#       
PMproc = #YYYYYYYYYY#
SHhydr = #YYYY#      
SHderv = #YYYYY#     
SHproc = #YYYYYYYYYY#
SHflux = #YYYY#      
PHhydr = #YYYYYY#    
PHderv = #YYY#       
PHproc = #YYYYYYYYYY#
PHflux = #YYYY#      
Flmap  =  7.4908800e+006 180  7.4988000e+006
Flhis  =  7.4908800e+006 180  7.4988000e+006
Flrst  = 10080
Commnt =                  
Online = #N#
Zmodel = #Y#
Zbot   = -350
Ztop   = 0.5
AirOut = #Y#
HeaOut = #Y#
Filscc= #Secchi.scc#
Filwp  = #Pressure.amp#
Filwu  = #WindU.amu#
Filwv  = #WindV.amv#
Filws  = #ShortwaveFlux.ams#
Filwt  = #Temperature.amt#
Filwr  = #RelativeHumidity.amr#
Filwc  = #CloudCoverage.amc#
Anglon = 10.63
Commnt =              
Wslake = 1
sdlake = 1
ncFormat = 4
FlNcdf = #map#
