Ident  = #Delft3D-FLOW 3.56.29165#
Commnt =
Filcco = #Gardagrid_unitn.grd#
Fmtcco = #FR#
Anglat =  4.5750000e+001
Grdang =  0.0000000e+000
Filgrd = #Gardagrid_unitn.enc#
Fmtgrd = #FR#
MNKmax = 64 224 100
Thick =  7.13266762
         7.13266762
         7.13266762
         7.13266762
         2.85306705
         2.85306705
         2.85306705
         2.85306705
         2.85306705
         1.42653352
         1.42653352
         1.42653352
         1.42653352
         1.42653352
         1.42653352
         1.42653352
         1.42653352
         1.42653352
         1.42653352
         1.42653352
         1.42653352
         1.42653352
         1.42653352
         1.42653352
         1.42653352
         1.42653352
         1.42653352
         1.42653352
         1.42653352
         0.71326676
         0.71326676
         0.71326676
         0.71326676
         0.71326676
         0.71326676
         0.71326676
         0.71326676
         0.71326676
         0.71326676
         0.71326676
         0.71326676
         0.71326676
         0.42796006
         0.42796006
         0.42796006
         0.42796006
         0.42796006
         0.42796006
         0.42796006
         0.42796006
         0.42796006
         0.42796006
         0.42796006
         0.42796006
         0.42796006
         0.42796006
         0.42796006
         0.42796006
         0.42796006
         0.42796006
         0.42796006
         0.42796006
         0.28530670
         0.28530670
         0.28530670
         0.28530670
         0.28530670
         0.28530670
         0.28530670
         0.28530670
         0.28530670
         0.28530670
         0.28530670
         0.28530670
         0.28530670
         0.28530670
         0.28530670
         0.28530670
         0.28530670
         0.28530670
         0.28530670
         0.28530670
         0.28530670
         0.28530670
         0.28530670
         0.28530670
         0.28530670
         0.28530670
         0.28530670
         0.28530670
         0.28530670
         0.28530670
         0.28530670
         0.28530670
         0.28530670
         0.28530670
         0.28530670
         0.28530670
         0.28530670
         0.28530670
Commnt =
Fildep = #benaco_05052017.dep#
Fmtdep = #FR#
Commnt =
Commnt =                 no. dry points: 
Fildry = #drypoints_unitn.dry#
Fmtdry = #FR#
Commnt =                 no. thin dams: 0
Fmttd  = #FR#
Commnt = go from Tstart=0 to end of year 2013 = 10 years with 3 leapyears so 3x366 + 7x365 = 3653*24*60 = 5260320. oops 5260260 is last time in 2004_2013.am* files
Itdate = #2008-03-01#
Tunit  = #M#
Tstart =  0
Tstop  =  5260320
Dt     =  0.5
Tzone  = 0
Commnt =
Sub1   = # TW #
Sub2   = #   #
Commnt =
Wnsvwp= #Y#
Wndint= #Y#
Zeta0  =  0.0000000e+000
T0     =  8.3000000000 
         8.3000000000
         8.3000000000
         8.3000000000
         8.3000000000
         8.3000000000
         8.4000000000
         8.4000000000
         8.4000000000
         8.4000000000
         8.4000000000
         8.4000000000
         8.4000000000
         8.4000000000
         8.4000000000
         8.4000000000
         8.4000000000
         8.4000000000
         8.4000000000
         8.4000000000
         8.4000000000
         8.4000000000
         8.4000000000
         8.4000000000
         8.5000000000
         8.5000000000
         8.5000000000
         8.5000000000
         8.5000000000
         8.5000000000
         8.5000000000
         8.6000000000
         8.6000000000
         8.6000000000
         8.6000000000
         8.6000000000
         8.7000000000
         8.7000000000
         8.7000000000
         8.7590909091
         8.8000000000
         8.9500000000
         9.0000000000
         9.0000000000
         9.0458333333
         9.1000000000
         9.1500000000
         9.2000000000
         9.3000000000
         9.4000000000
         9.4000000000
         9.4050000000
         9.5000000000
         9.5000000000
         9.5833333333
         9.6000000000
         9.7000000000
         9.8136363636
         10.1450000000
         10.2045454545
         10.3642857143
         10.4961538462
         10.6000000000
         10.6222222222
         10.7000000000
         10.7000000000
         10.7000000000
         10.7000000000
         10.7000000000
         10.7000000000
         10.7000000000
         10.7000000000
         10.7000000000
         10.7000000000
         10.7000000000
         10.7000000000
         10.7000000000
         10.7000000000
         10.7000000000
         10.7000000000
         10.7000000000
         10.7000000000
         10.7000000000
         10.7000000000
         10.7000000000
         10.7000000000
         10.7000000000
         10.7000000000
         10.7000000000
         10.7000000000
         10.7000000000
         10.7000000000
         10.7000000000
         10.7000000000
         10.7000000000
         10.7000000000
         10.7000000000
         10.7000000000
         10.7000000000
         10.7000000000
Commnt =
Commnt =                 no. open boundaries: 0
Commnt =
Ag     =  9.8100000e+000
Rhow   =  1.0000000e+003
Tempw  =  1.5000000e+001
Salw   =  0.0000000e+000
Wstres=   4.4000000e-003  1.0000000e+000  1.0000000e-003  5.0000000e+000  2.0000000e-003  20.0000000e+000
Rhoa   =  1.2500000e+000
Betac  =  5.0000000e-001
Equili = #N#
Tkemod = #K-epsilon   #
Ktemp  = 5
Fclou  =  0.0000000e+000
Sarea  =  1.0000000e+000
Secchi =  1.2000000e+001
Filscc= #Secchi.scc#
Stantn =  6.5000000e-004
Dalton =  1.3000000e-003
cfrcon = 0.1
Commnt =
Roumet = #C#
Ccofu  =  6.0000000e+001
Ccofv  =  6.0000000e+001
Xlo    =  4.9999999e-003
Vicouv =  2.0000000e-001
Dicouv =  2.0000000e-001
Htur2d = #N#
Vicoww =  0.0000000e+000
Dicoww =  0.0000000e+000
Irov   = 0
Commnt =
Iter   =      2
Dryflp = #YES#
Dpsopt = #DP#
Dpuopt = #MIN#
Dryflc =  1.0000000e-001
Dco    = -9.9900000e+002
Tlfsmo =  6.0000000e+001
ThetQH =  0.0000000e+000
Forfuv = #Y#
Forfww = #Y#
Sigcor = #N#
Trasol = #Cyclic-method#
Momsol = #Cyclic#
Commnt =
Commnt =                 no. discharges: 0
Commnt =                 no. observation points: 12
Filsta = #obspoints_unitn_monitoring.obs#
Fmtsta = #FR#
Commnt =                 no. drogues: 0
Commnt =
Commnt =
Commnt =                 no. cross sections: 0
Fmtcrs = #FR#
Commnt =
SMhydr = #YYYYY#
SMderv = #YYYYYY#
SMproc = #YYYYYYYYYY#
PMhydr = #YYYYYY#
PMderv = #YYY#
PMproc = #YYYYYYYYYY#
SHhydr = #YYYY#
SHderv = #YYYYY#
SHproc = #YYYYYYYYYY#
SHflux = #YYYY#
PHhydr = #YYYYYY#
PHderv = #YYY#
PHproc = #YYYYYYYYYY#
PHflux = #YYYY#
Flmap  =  7.4908800e+006 180  7.4988000e+006
Flhis  =  7.4908800e+006 180  7.4988000e+006
Flrst  = 10080
Commnt =
Online = #N#
Airout = #Y#
Heaout = #Y#
Zmodel = #Y#
Zbot   = -350.0
Ztop   = 0.5
AdvFlx = true
CumAFl = true
Commnt =
Filwp  = #Pressure.amp#
Filwu  = #WindU.amu#
Filwv  = #WindV.amv#
Filws  = #ShortwaveFlux.ams#
Filwt  = #Temperature.amt#
Filwr  = #RelativeHumidity.amr#
Filwc  = #CloudCoverage.amc#
Temint = #Y#
CflMsg = #Y#
ncFormat = 4
FlNcdf = #map#