Ident  = #Delft3D-FLOW 3.59.01.48550#
Commnt =                  
Runtxt = #Lago di Caldonazzo#
         #25 mar 2003 - 1 mar 2004#
         #Simulazione base esempio#
Filcco = #Caldonazzo_50.grd#
Anglat =  4.6000000e+001
Grdang =  0.0000000e+000
Filgrd = #Caldonazzo_50.enc#
MNKmax = 42 85 65
Thick  =  1.9704434e+000
          1.9704434e+000
          1.9704434e+000
          1.9704434e+000
          1.9704434e+000
          1.9704434e+000
          1.9704434e+000
          1.9704434e+000
          1.9704434e+000
          1.9704434e+000
          1.9704434e+000
          1.9704434e+000
          1.9704434e+000
          1.9704434e+000
          1.9704434e+000
          1.9704434e+000
          1.9704434e+000
          1.9704434e+000
          1.9704434e+000
          1.9704434e+000
          1.9704434e+000
          1.9704434e+000
          1.9704434e+000
          1.9704434e+000
          1.9704434e+000
          1.9704434e+000
          1.9704434e+000
          1.9704434e+000
          1.9704434e+000
          1.9704434e+000
          1.9704434e+000
          1.9704434e+000
          1.9704434e+000
          1.9704434e+000
          1.9704434e+000
          1.9704434e+000
          1.4778325e+000
          9.8522167e-001
          9.8522167e-001
          9.8522167e-001
          9.8522167e-001
          9.8522167e-001
          9.8522167e-001
          9.8522167e-001
          9.8522167e-001
          9.8522167e-001
          9.8522167e-001
          9.8522167e-001
          9.8522167e-001
          9.8522167e-001
          9.8522167e-001
          9.8522167e-001
          9.8522167e-001
          9.8522167e-001
          9.8522167e-001
          9.8522167e-001
          9.8522167e-001
          9.8522167e-001
          9.8522167e-001
          9.8522167e-001
          9.8522167e-001
          9.8522167e-001
          9.8522167e-001
          9.8522167e-001
          9.8522167e-001
Commnt =                  
Fildep = #Caldonazzo_50.dep#
Commnt =                  
Commnt =                 no. dry points: 0
Commnt =                 no. thin dams: 0
Commnt =                  
Itdate = #2008-03-01#
Tunit  = #M#
Tstart =  7.4880000e+004
Tstop  =  5.6736000e+005
Dt     = 0.2
Tzone  = 0
Commnt =                  
Sub1   = # TW #
Sub2   = #   #
Commnt =                  
Wnsvwp = #N#
Filwnd = #Wind_1Feb03_28Apr04.wnd#
Wndint = #N#
Commnt =                  
Zeta0  =  2.9000000e-001
T0     =  9.4450000e+000
          9.4450000e+000
          9.4450000e+000
          9.4450000e+000
          9.4450000e+000
          9.4450000e+000
          9.4450000e+000
          9.4450000e+000
          9.4450000e+000
          9.4450000e+000
          9.4450000e+000
          9.4450000e+000
          9.4450000e+000
          9.4450000e+000
          9.4450000e+000
          9.4450000e+000
          9.4450000e+000
          9.4450000e+000
          9.4450000e+000
          9.4450000e+000
          9.4450000e+000
          9.4450000e+000
          9.4450000e+000
          9.4450000e+000
          9.4450000e+000
          9.4450000e+000
          9.4450000e+000
          9.4450000e+000
          9.4450000e+000
          9.4450000e+000
          9.4450000e+000
          9.4450000e+000
          9.4450000e+000
          9.4450000e+000
          9.4450000e+000
          9.4450000e+000
          9.4450000e+000
          9.4450000e+000
          9.4450000e+000
          9.4450000e+000
          9.4450000e+000
          9.4450000e+000
          9.4450000e+000
          9.4450000e+000
          9.4450000e+000
          9.4450000e+000
          9.4450000e+000
          9.4450000e+000
          9.4450000e+000
          9.4450000e+000
          9.4450000e+000
          9.4450000e+000
          9.4450000e+000
          9.4450000e+000
          9.4450000e+000
          9.4450000e+000
          9.4450000e+000
          9.4450000e+000
          9.4450000e+000
          9.4450000e+000
          9.4450000e+000
          9.4450000e+000
          9.4450000e+000
          9.4450000e+000
          9.4450000e+000
Commnt =                  
Commnt =                 no. open boundaries: 1
Filbnd = #Brenta.bnd#
FilbcT = #Brenta.bct#
FilbcC = #Brenta.bcc#
Rettis =  0.0000000e+000
Rettib =  0.0000000e+000
Commnt =                  
Ag     =  9.8100000e+000
Rhow   =  1.0000000e+003
Tempw  =  1.5000000e+001
Salw   =  0.0000000e+000
Wstres =  1.0000000e-003  1.0000000e+000  1.0000000e-003  5.0000000e+000  1.0000000e-003  2.0000000e+001
Rhoa   =  1.0000000e+000
Betac  =  5.0000000e-001
Equili = #N#
Tkemod = #K-epsilon   #
Ktemp  = 5
Fclou  =  0.0000000e+000
Sarea  =  1.0000000e+000
Secchi =  5.0000000e+000
Stantn =  1.0000000e-004
Dalton =  1.0000000e-004
Filtmp = #Ocean_1Feb03_28Apr04.tem#
Solrad = #Y#
Temint = #Y#
Commnt =                  
Roumet = #C#
Ccofu  =  6.0000000e+001
Ccofv  =  6.0000000e+001
Xlo    =  4.9999999e-003
Vicouv =  1.0000000e-001
Dicouv =  1.0000000e-001
Htur2d = #N#
Vicoww =  1.0000000e-006
Dicoww =  1.0000000e-009
Irov   = 0
Commnt =                  
Iter   =      2
Dryflp = #YES#
Dpsopt = #DP#
Dpuopt = #MIN#
Dryflc =  1.0000000e-001
Dco    = -9.9900000e+002
Tlfsmo =  6.0000000e+001
ThetQH =  0.0000000e+000
Forfuv = #Y#
Forfww = #Y#
Sigcor = #N#
Trasol = #Cyclic-method#
Momsol = #Cyclic#
Commnt =                  
Commnt =                 no. discharges: 0
Commnt =                 no. observation points: 3
Filsta = #obspoints_50m.obs#
Commnt =                 no. drogues: 0
Commnt =                  
Commnt =                  
Commnt =                 no. cross sections: 0
Commnt =                  
SMhydr = #YYYYY#     
SMderv = #YYYYYY#    
SMproc = #YYYYYYYYYY#
PMhydr = #YYYYYY#    
PMderv = #YYY#       
PMproc = #YYYYYYYYYY#
SHhydr = #YYYY#      
SHderv = #YYYYY#     
SHproc = #YYYYYYYYYY#
SHflux = #YYYY#      
PHhydr = #YYYYYY#    
PHderv = #YYY#       
PHproc = #YYYYYYYYYY#
PHflux = #YYYY#      
Flmap  =  7.4908800e+006 180  7.4988000e+006
Flhis  =  7.4908800e+006 180  7.4988000e+006
Flpp   =  4.0320000e+004 120  4.0320000e+004
Flrst  = 10080
Commnt =                  
Online = #N#
Zmodel = #Y#
Zbot   = -50.0
Ztop   = 0.75
AdvFlx = #N#
CumAFl = #N#
Commnt =
ncFormat = 4
FlNcdf = #map#
