Ident  = #Delft3D-FLOW 3.59.01.48550#
Commnt =                  
Runtxt = #Lake Caldonazzo#
         #Developed for the Alplakes project#
Filcco = #caldonazzo_grid.grd#
Anglat =  4.6010000e+001
Grdang =  0.0000000e+000
Filgrd = #caldonazzo_grid_enclosure.enc#
MNKmax = 42 85 65
Thick  =  1.9704434e+000
          1.9704434e+000
          1.9704434e+000
          1.9704434e+000
          1.9704434e+000
          1.9704434e+000
          1.9704434e+000
          1.9704434e+000
          1.9704434e+000
          1.9704434e+000
          1.9704434e+000
          1.9704434e+000
          1.9704434e+000
          1.9704434e+000
          1.9704434e+000
          1.9704434e+000
          1.9704434e+000
          1.9704434e+000
          1.9704434e+000
          1.9704434e+000
          1.9704434e+000
          1.9704434e+000
          1.9704434e+000
          1.9704434e+000
          1.9704434e+000
          1.9704434e+000
          1.9704434e+000
          1.9704434e+000
          1.9704434e+000
          1.9704434e+000
          1.9704434e+000
          1.9704434e+000
          1.9704434e+000
          1.9704434e+000
          1.9704434e+000
          1.9704434e+000
          1.4778325e+000
          9.8522167e-001
          9.8522167e-001
          9.8522167e-001
          9.8522167e-001
          9.8522167e-001
          9.8522167e-001
          9.8522167e-001
          9.8522167e-001
          9.8522167e-001
          9.8522167e-001
          9.8522167e-001
          9.8522167e-001
          9.8522167e-001
          9.8522167e-001
          9.8522167e-001
          9.8522167e-001
          9.8522167e-001
          9.8522167e-001
          9.8522167e-001
          9.8522167e-001
          9.8522167e-001
          9.8522167e-001
          9.8522167e-001
          9.8522167e-001
          9.8522167e-001
          9.8522167e-001
          9.8522167e-001
          9.8522167e-001
Commnt =                  
Fildep = #caldonazzo_depths.dep#
Commnt =                  
Commnt =                 no. dry points: 0
Commnt =                 no. thin dams: 0
Commnt =                  
Itdate = #2008-03-01#
Tunit  = #M#
Tstart =  1.12980e+05
Tstop  =  3.23220e+05
Dt     = 0.5
Tzone  = 0
Commnt =                  
Sub1   = # TW #
Sub2   = #  #
Commnt =                  
Wnsvwp = #Y#
Wndint = #Y#
Commnt =
Restid =  #Simulation_Web_rst.000000#
Zeta0  =  2.9000000e-001
T0     = 4.9281127633e+00
         4.9612542857e+00
         4.9943958081e+00
         5.0275373305e+00
         5.0606788530e+00
         5.0938203754e+00
         5.1269618978e+00
         5.1518237201e+00
         5.1691684035e+00
         5.1871706053e+00
         5.2036359465e+00
         5.2239262052e+00
         5.2498003657e+00
         5.2668061704e+00
         5.2783814532e+00
         5.2986027897e+00
         5.3157490120e+00
         5.3264066313e+00
         5.3438616591e+00
         5.3624358655e+00
         5.3790967479e+00
         5.4009509953e+00
         5.4318424403e+00
         5.4738734227e+00
         5.5252522858e+00
         5.5825153371e+00
         5.6330909562e+00
         5.6670307997e+00
         5.6856018912e+00
         5.6933301762e+00
         5.6994721237e+00
         5.7163210671e+00
         5.7610764039e+00
         5.8168568749e+00
         5.8474030240e+00
         5.8559944985e+00
         5.8617976298e+00
         5.8686399090e+00
         5.8746955971e+00
         5.8807512809e+00
         5.8844242676e+00
         5.8880972616e+00
         5.8958155765e+00
         5.9035339025e+00
         5.9174418872e+00
         5.9313498793e+00
         5.9494256182e+00
         5.9675014049e+00
         6.0125214054e+00
         6.0575416797e+00
         6.2580363060e+00
         6.4585309145e+00
         6.6488801490e+00
         6.8392293896e+00
         7.0330734341e+00
         7.2269178621e+00
         7.6422052621e+00
         8.0574928734e+00
         8.5954655517e+00
         9.1334375794e+00
         9.2914643324e+00
         9.4494908163e+00
         9.4494908163e+00
         9.4494908163e+00
         9.4494908163e+00
Commnt =                  
Commnt =                 no. open boundaries: 0
Commnt =                  
Ag     =  9.8100000e+000
Rhow   =  1.0000000e+003
Tempw  =  1.5000000e+001
Salw   =  2.0000000e-001
Wstres =  1.1316811e-03 5.0000000e-01 2.5720025e-04 4.5000000e+00 5.1440051e-04 1.0000000e+01
Rhoa   =  1.0000000e+000
Equili = #N#
Tkemod = #K-epsilon   #
Ktemp  = 5
Temint = #Y#
Commnt =                  
Roumet = #C#
Ccofu  =  6.0000000e+001
Ccofv  =  6.0000000e+001
Xlo    =  1.6099832e-02
cFrCon =  7.8840060e-04
Vicouv =  5.4553641e-03
Dicouv =  2.9730323e+00
Htur2d = #N#
Vicoww =  1.0000000e-006
Dicoww =  1.0000000e-009
Irov   = 0
Commnt =                  
Iter   =      2
Dryflp = #YES#
Dpsopt = #DP#
Dpuopt = #MIN#
Dryflc =  1.0000000e-001
Dco    = -9.9900000e+002
Forfuv = #Y#
Forfww = #Y#
Sigcor = #N#
Trasol = #Cyclic-method#
Momsol = #Cyclic#
Commnt =                  
Commnt =                 no. discharges: 0
Commnt =                 no. observation points: 1
Filsta = #caldonazzo_observation_points.obs#
Commnt =                 no. drogues: 0
Commnt =                  
Commnt =                  
Commnt =                 no. cross sections: 0
Commnt =                  
SMhydr = #YYYYY#     
SMderv = #YYYYYY#    
SMproc = #YYYYYYYYYY#
PMhydr = #YYYYYY#    
PMderv = #YYY#       
PMproc = #YYYYYYYYYY#
SHhydr = #YYYY#      
SHderv = #YYYYY#     
SHproc = #YYYYYYYYYY#
SHflux = #YYYY#      
PHhydr = #YYYYYY#    
PHderv = #YYY#       
PHproc = #YYYYYYYYYY#
PHflux = #YYYY#      
Flmap  =  7.4908800e+006 180  7.4988000e+006
Flhis  =  7.4908800e+006 180  7.4988000e+006
Flpp   =  0.00000e+00  0.00000e+00  0.00000e+00
Flrst  = 10080
Commnt =                  
Online = #N#
Zmodel = #Y#
Zbot   = -50.0
Ztop   = 0.75
AirOut = #Y#
HeaOut = #Y#
Filscc= #Secchi.scc#
Filwp  = #Pressure.amp#
Filwu  = #WindU.amu#
Filwv  = #WindV.amv#
Filws  = #ShortwaveFlux.ams#
Filwt  = #Temperature.amt#
Filwr  = #RelativeHumidity.amr#
Filwc  = #CloudCoverage.amc#
Anglon = 11.24
Commnt =              
Wslake = 1
sdlake = 1
ncFormat = 4
FlNcdf = #map#