*
* Deltares, Delft3D-RGFGRID Version 4.18.00.16842, May 25 2011, 10:45:12
* File creation date: 2022-01-07, 14:29:37
*
Coordinate System = Cartesian
     152      21
 0 0 0
 ETA=    1   0.00000000000000000E+00   0.00000000000000000E+00   0.00000000000000000E+00   0.00000000000000000E+00   0.00000000000000000E+00
             0.00000000000000000E+00   0.00000000000000000E+00   0.00000000000000000E+00   0.00000000000000000E+00   0.00000000000000000E+00
             0.00000000000000000E+00   0.00000000000000000E+00   0.00000000000000000E+00   0.00000000000000000E+00   0.00000000000000000E+00
             0.00000000000000000E+00   0.00000000000000000E+00   0.00000000000000000E+00   0.00000000000000000E+00   0.00000000000000000E+00
             0.00000000000000000E+00   0.00000000000000000E+00   0.00000000000000000E+00   0.00000000000000000E+00   0.00000000000000000E+00
             0.00000000000000000E+00   0.00000000000000000E+00   0.00000000000000000E+00   0.00000000000000000E+00   0.00000000000000000E+00
             0.00000000000000000E+00   0.00000000000000000E+00   0.00000000000000000E+00   0.00000000000000000E+00   0.00000000000000000E+00
             0.00000000000000000E+00   0.00000000000000000E+00   0.00000000000000000E+00   0.00000000000000000E+00   0.00000000000000000E+00
             0.00000000000000000E+00   0.00000000000000000E+00   0.00000000000000000E+00   0.00000000000000000E+00   5.10992311230294756E+05
             5.11049649785902177E+05   5.11107362035513099E+05   5.11165557311965153E+05   5.11224225810247473E+05   5.11283377298132807E+05
             5.11343413056876918E+05   0.00000000000000000E+00   0.00000000000000000E+00   0.00000000000000000E+00   0.00000000000000000E+00
             0.00000000000000000E+00   0.00000000000000000E+00   0.00000000000000000E+00   0.00000000000000000E+00   0.00000000000000000E+00
             0.00000000000000000E+00   0.00000000000000000E+00   0.00000000000000000E+00   0.00000000000000000E+00   0.00000000000000000E+00
             0.00000000000000000E+00   0.00000000000000000E+00   0.00000000000000000E+00   0.00000000000000000E+00   0.00000000000000000E+00
             0.00000000000000000E+00   0.00000000000000000E+00   0.00000000000000000E+00   0.00000000000000000E+00   0.00000000000000000E+00
             0.00000000000000000E+00   0.00000000000000000E+00   0.00000000000000000E+00   0.00000000000000000E+00   0.00000000000000000E+00
             0.00000000000000000E+00   0.00000000000000000E+00   0.00000000000000000E+00   0.00000000000000000E+00   0.00000000000000000E+00
             0.00000000000000000E+00   0.00000000000000000E+00   0.00000000000000000E+00   0.00000000000000000E+00   0.00000000000000000E+00
             0.00000000000000000E+00   0.00000000000000000E+00   0.00000000000000000E+00   0.00000000000000000E+00   0.00000000000000000E+00
             0.00000000000000000E+00   0.00000000000000000E+00   0.00000000000000000E+00   0.00000000000000000E+00   0.00000000000000000E+00
             0.00000000000000000E+00   0.00000000000000000E+00   0.00000000000000000E+00   0.00000000000000000E+00   0.00000000000000000E+00
             0.00000000000000000E+00   0.00000000000000000E+00   0.00000000000000000E+00   0.00000000000000000E+00   0.00000000000000000E+00
             0.00000000000000000E+00   0.00000000000000000E+00   0.00000000000000000E+00   0.00000000000000000E+00   0.00000000000000000E+00
             0.00000000000000000E+00   0.00000000000000000E+00   0.00000000000000000E+00   0.00000000000000000E+00   0.00000000000000000E+00
             0.00000000000000000E+00   0.00000000000000000E+00   0.00000000000000000E+00   0.00000000000000000E+00   0.00000000000000000E+00
             0.00000000000000000E+00   0.00000000000000000E+00   0.00000000000000000E+00   0.00000000000000000E+00   0.00000000000000000E+00
             0.00000000000000000E+00   0.00000000000000000E+00   0.00000000000000000E+00   0.00000000000000000E+00   0.00000000000000000E+00
             0.00000000000000000E+00   0.00000000000000000E+00   0.00000000000000000E+00   0.00000000000000000E+00   0.00000000000000000E+00
             0.00000000000000000E+00   0.00000000000000000E+00   0.00000000000000000E+00   0.00000000000000000E+00   0.00000000000000000E+00
             0.00000000000000000E+00   0.00000000000000000E+00   0.00000000000000000E+00   0.00000000000000000E+00   0.00000000000000000E+00
             0.00000000000000000E+00   0.00000000000000000E+00
 ETA=    2   0.00000000000000000E+00   0.00000000000000000E+00   0.00000000000000000E+00   0.00000000000000000E+00   0.00000000000000000E+00
             0.00000000000000000E+00   0.00000000000000000E+00   0.00000000000000000E+00   0.00000000000000000E+00   0.00000000000000000E+00
             0.00000000000000000E+00   0.00000000000000000E+00   0.00000000000000000E+00   0.00000000000000000E+00   0.00000000000000000E+00
             0.00000000000000000E+00   0.00000000000000000E+00   0.00000000000000000E+00   0.00000000000000000E+00   0.00000000000000000E+00
             0.00000000000000000E+00   0.00000000000000000E+00   0.00000000000000000E+00   0.00000000000000000E+00   0.00000000000000000E+00
             0.00000000000000000E+00   0.00000000000000000E+00   0.00000000000000000E+00   0.00000000000000000E+00   0.00000000000000000E+00
             0.00000000000000000E+00   0.00000000000000000E+00   0.00000000000000000E+00   0.00000000000000000E+00   0.00000000000000000E+00
             0.00000000000000000E+00   0.00000000000000000E+00   0.00000000000000000E+00   0.00000000000000000E+00   0.00000000000000000E+00
             0.00000000000000000E+00   5.10782251024119789E+05   5.10838406568326754E+05   5.10895317903361865E+05   5.10952960032235133E+05
             5.11010922736273438E+05   5.11069238819235121E+05   5.11127902426153480E+05   5.11186850141740753E+05   5.11245982145776215E+05
             5.11305137680098065E+05   5.11363131903580914E+05   5.11421691590456758E+05   0.00000000000000000E+00   0.00000000000000000E+00
             0.00000000000000000E+00   0.00000000000000000E+00   5.11684171513507725E+05   5.11729437095342088E+05   5.11772794889192155E+05
             5.11814508571090410E+05   5.11856386543553672E+05   5.11899128346149053E+05   5.11943467344752979E+05   5.11988326647415815E+05
             5.12031079168393626E+05   5.12072632968721155E+05   5.12115502783828997E+05   5.12159659520462854E+05   5.12204267350633629E+05
             5.12249005966618366E+05   5.12293987047367205E+05   5.12339313095394347E+05   5.12384906127203023E+05   5.12430809782385593E+05
             5.12477028091277054E+05   0.00000000000000000E+00   0.00000000000000000E+00   0.00000000000000000E+00   0.00000000000000000E+00
             0.00000000000000000E+00   0.00000000000000000E+00   0.00000000000000000E+00   0.00000000000000000E+00   0.00000000000000000E+00
             0.00000000000000000E+00   0.00000000000000000E+00   0.00000000000000000E+00   0.00000000000000000E+00   0.00000000000000000E+00
             0.00000000000000000E+00   0.00000000000000000E+00   5.13215124522569240E+05   5.13257595615564438E+05   5.13301895468231407E+05
             5.13346361366026627E+05   0.00000000000000000E+00   0.00000000000000000E+00   0.00000000000000000E+00   0.00000000000000000E+00
             0.00000000000000000E+00   0.00000000000000000E+00   0.00000000000000000E+00   0.00000000000000000E+00   0.00000000000000000E+00
             0.00000000000000000E+00   0.00000000000000000E+00   0.00000000000000000E+00   0.00000000000000000E+00   0.00000000000000000E+00
             0.00000000000000000E+00   0.00000000000000000E+00   0.00000000000000000E+00   0.00000000000000000E+00   0.00000000000000000E+00
             0.00000000000000000E+00   0.00000000000000000E+00   0.00000000000000000E+00   0.00000000000000000E+00   0.00000000000000000E+00
             0.00000000000000000E+00   0.00000000000000000E+00   0.00000000000000000E+00   0.00000000000000000E+00   0.00000000000000000E+00
             0.00000000000000000E+00   0.00000000000000000E+00   0.00000000000000000E+00   0.00000000000000000E+00   0.00000000000000000E+00
             0.00000000000000000E+00   0.00000000000000000E+00   0.00000000000000000E+00   0.00000000000000000E+00   0.00000000000000000E+00
             0.00000000000000000E+00   0.00000000000000000E+00   0.00000000000000000E+00   0.00000000000000000E+00   0.00000000000000000E+00
             0.00000000000000000E+00   0.00000000000000000E+00   0.00000000000000000E+00   0.00000000000000000E+00   0.00000000000000000E+00
             0.00000000000000000E+00   0.00000000000000000E+00   0.00000000000000000E+00   0.00000000000000000E+00   0.00000000000000000E+00
             0.00000000000000000E+00   0.00000000000000000E+00
 ETA=    3   0.00000000000000000E+00   0.00000000000000000E+00   0.00000000000000000E+00   0.00000000000000000E+00   0.00000000000000000E+00
             0.00000000000000000E+00   0.00000000000000000E+00   0.00000000000000000E+00   0.00000000000000000E+00   0.00000000000000000E+00
             0.00000000000000000E+00   0.00000000000000000E+00   0.00000000000000000E+00   5.09241869126553996E+05   5.09304518338565889E+05
             5.09364211792206159E+05   5.09421630912878609E+05   5.09477442726268782E+05   0.00000000000000000E+00   0.00000000000000000E+00
             0.00000000000000000E+00   0.00000000000000000E+00   0.00000000000000000E+00   0.00000000000000000E+00   5.09849176158382674E+05
             5.09901282977408729E+05   5.09953415327256778E+05   5.10005571265942766E+05   5.10057767849592783E+05   5.10110017209748388E+05
             0.00000000000000000E+00   0.00000000000000000E+00   0.00000000000000000E+00   0.00000000000000000E+00   0.00000000000000000E+00
             0.00000000000000000E+00   0.00000000000000000E+00   0.00000000000000000E+00   0.00000000000000000E+00   5.10633276366554841E+05
             5.10687383973327524E+05   5.10741886499519635E+05   5.10799325356789050E+05   5.10856864586456853E+05   5.10914792734605435E+05
             5.10972965781353647E+05   5.11031414220582461E+05   5.11090090072541905E+05   5.11148885231408989E+05   5.11207626115604653E+05
             5.11265997745412460E+05   5.11323067889625498E+05   5.11377218333386641E+05   0.00000000000000000E+00   5.11486883283731702E+05
             5.11540745859826391E+05   5.11594834117926657E+05   5.11638032195574488E+05   5.11681495098293817E+05   5.11725055843349255E+05
             5.11768625437715906E+05   5.11812202013045375E+05   5.11855865337548195E+05   5.11899738837116107E+05   5.11943724578723079E+05
             5.11987416574727395E+05   5.12030849993255979E+05   5.12074522438712767E+05   5.12118696135953243E+05   5.12163271807621524E+05
             5.12208110648382804E+05   5.12253191241590423E+05   5.12298534170272877E+05   5.12344117097908747E+05   5.12389893752849835E+05
             5.12435782933883776E+05   5.12481618054830120E+05   5.12526650387780799E+05   5.12568937386641221E+05   5.12610753678887093E+05
             5.12652562901415105E+05   5.12694355292035791E+05   5.12736280862003099E+05   5.12778611163306923E+05   5.12821416823187086E+05
             5.12864689346881816E+05   5.12908483299334650E+05   5.12952896627918642E+05   5.12997908273601846E+05   5.13043145472059201E+05
             5.13087981265176088E+05   5.13132304778671416E+05   5.13173774988529505E+05   5.13216723075308662E+05   5.13260265069513698E+05
             5.13302893514152849E+05   5.13343224884028547E+05   5.13379483347651199E+05   5.13417412373036263E+05   5.13456326694421994E+05
             5.13496106621456507E+05   5.13536964750729850E+05   5.13579008386717469E+05   5.13622272314394475E+05   0.00000000000000000E+00
             0.00000000000000000E+00   0.00000000000000000E+00   0.00000000000000000E+00   0.00000000000000000E+00   0.00000000000000000E+00
             0.00000000000000000E+00   0.00000000000000000E+00   0.00000000000000000E+00   0.00000000000000000E+00   0.00000000000000000E+00
             0.00000000000000000E+00   0.00000000000000000E+00   0.00000000000000000E+00   0.00000000000000000E+00   0.00000000000000000E+00
             5.14456779039349523E+05   5.14507463635594002E+05   5.14558975903564307E+05   5.14611409546900948E+05   5.14665211721211497E+05
             5.14722347437204735E+05   0.00000000000000000E+00   0.00000000000000000E+00   0.00000000000000000E+00   0.00000000000000000E+00
             0.00000000000000000E+00   0.00000000000000000E+00   0.00000000000000000E+00   0.00000000000000000E+00   0.00000000000000000E+00
             0.00000000000000000E+00   0.00000000000000000E+00   0.00000000000000000E+00   0.00000000000000000E+00   0.00000000000000000E+00
             0.00000000000000000E+00   0.00000000000000000E+00   0.00000000000000000E+00   0.00000000000000000E+00   0.00000000000000000E+00
             0.00000000000000000E+00   0.00000000000000000E+00   0.00000000000000000E+00   0.00000000000000000E+00   0.00000000000000000E+00
             0.00000000000000000E+00   0.00000000000000000E+00
 ETA=    4   0.00000000000000000E+00   0.00000000000000000E+00   0.00000000000000000E+00   0.00000000000000000E+00   0.00000000000000000E+00
             0.00000000000000000E+00   0.00000000000000000E+00   0.00000000000000000E+00   0.00000000000000000E+00   0.00000000000000000E+00
             0.00000000000000000E+00   0.00000000000000000E+00   5.09138185916534800E+05   5.09204624569928623E+05   5.09267682880954468E+05
             5.09327686172230402E+05   5.09385221883249003E+05   5.09440988936615409E+05   5.09495623782614712E+05   5.09549378710344725E+05
             0.00000000000000000E+00   0.00000000000000000E+00   0.00000000000000000E+00   0.00000000000000000E+00   5.09811732678963919E+05
             5.09863757256016310E+05   5.09915783249784843E+05   5.09967827315785922E+05   5.10019913541021466E+05   5.10072057518996997E+05
             5.10124262078934407E+05   0.00000000000000000E+00   5.10228821509004396E+05   5.10281153196210274E+05   5.10333512076629733E+05
             5.10385914327547478E+05   5.10438216313738783E+05   0.00000000000000000E+00   5.10543266711637494E+05   5.10595320712604793E+05
             5.10649820933923649E+05   5.10704921804571699E+05   5.10762118402104126E+05   5.10819446295369358E+05   5.10877176149748324E+05
             5.10935246785795083E+05   5.10993599068360985E+05   5.11052117011238006E+05   5.11110643573057372E+05   5.11168966278298292E+05
             5.11226760494491376E+05   5.11283418288471818E+05   5.11338386736217479E+05   5.11392910953678424E+05   5.11446982573581859E+05
             5.11500063281562645E+05   5.11551309885966126E+05   5.11594623142500350E+05   5.11637459872460517E+05   5.11680723819153092E+05
             5.11724593940106803E+05   5.11768740620561875E+05   5.11812889346020413E+05   5.11856969780568266E+05   5.11901079576645221E+05
             5.11945252739293384E+05   5.11989436027122778E+05   5.12033683749247692E+05   5.12078136678928218E+05   5.12122829144379706E+05
             5.12167733458249539E+05   5.12212843412496557E+05   5.12258165124952968E+05   5.12303677462479041E+05   5.12349322821826616E+05
             5.12395016749209608E+05   5.12440602353376802E+05   5.12485615356772032E+05   5.12528749302173266E+05   5.12571088521876140E+05
             5.12612986417084816E+05   5.12654878753318975E+05   5.12697026331185712E+05   5.12739565850683837E+05   5.12782526917235227E+05
             5.12825931779081875E+05   5.12869832796184521E+05   5.12914298629999277E+05   5.12959278844834305E+05   5.13004369807710580E+05
             5.13048907214424806E+05   5.13092584396957711E+05   5.13134153576116252E+05   5.13176481713451969E+05   5.13219006809492595E+05
             5.13260667416284210E+05   5.13300779410416668E+05   5.13337690856674628E+05   5.13375443714230380E+05   5.13414116360759072E+05
             5.13453833627031243E+05   5.13494696705331153E+05   5.13536746130792482E+05   5.13580012151448289E+05   5.13624500675821502E+05
             5.13670143331052735E+05   5.13716785638106812E+05   5.13764282773866318E+05   5.13812522235047771E+05   5.13861398425256717E+05
             5.13910799940478813E+05   5.13960610069588642E+05   5.14010707090843993E+05   5.14060967254426505E+05   5.14111291509567818E+05
             5.14161879950566159E+05   0.00000000000000000E+00   0.00000000000000000E+00   5.14314157076905074E+05   5.14365001834427821E+05
             5.14416043172761332E+05   5.14467558747603558E+05   5.14519500814542524E+05   5.14571726933948230E+05   5.14623857015794085E+05
             5.14674855874257279E+05   5.14719273356844962E+05   0.00000000000000000E+00   0.00000000000000000E+00   0.00000000000000000E+00
             0.00000000000000000E+00   0.00000000000000000E+00   0.00000000000000000E+00   0.00000000000000000E+00   0.00000000000000000E+00
             0.00000000000000000E+00   0.00000000000000000E+00   0.00000000000000000E+00   0.00000000000000000E+00   0.00000000000000000E+00
             0.00000000000000000E+00   0.00000000000000000E+00   0.00000000000000000E+00   0.00000000000000000E+00   0.00000000000000000E+00
             0.00000000000000000E+00   0.00000000000000000E+00   0.00000000000000000E+00   0.00000000000000000E+00   0.00000000000000000E+00
             0.00000000000000000E+00   0.00000000000000000E+00
 ETA=    5   0.00000000000000000E+00   0.00000000000000000E+00   0.00000000000000000E+00   0.00000000000000000E+00   0.00000000000000000E+00
             0.00000000000000000E+00   0.00000000000000000E+00   0.00000000000000000E+00   0.00000000000000000E+00   0.00000000000000000E+00
             0.00000000000000000E+00   0.00000000000000000E+00   5.09104202620256634E+05   5.09169319976210943E+05   5.09231837763423042E+05
             5.09291597782840836E+05   5.09348979262238368E+05   5.09404627710200206E+05   5.09459189628907479E+05   5.09512647663884389E+05
             5.09565616525374644E+05   5.09618237216822046E+05   0.00000000000000000E+00   5.09722398553499486E+05   5.09774109444089525E+05
             5.09826043359165080E+05   5.09877950387390330E+05   5.09929877552570077E+05   5.09981855921143666E+05   5.10033901936638635E+05
             5.10086018804034684E+05   5.10138200777212100E+05   5.10190437566996785E+05   5.10242718806486693E+05   5.10295040526243742E+05
             5.10347407299305138E+05   5.10399790665540437E+05   5.10452329273408861E+05   5.10504905022191582E+05   5.10557730107267562E+05
             5.10612426360458252E+05   5.10667832128818613E+05   5.10724721131800790E+05   5.10781919608881057E+05   5.10839512216491450E+05
             5.10897434449174674E+05   5.10955596243756823E+05   5.11013861378796573E+05   5.11072055479631526E+05   5.11129960723960015E+05
             5.11187283590657404E+05   5.11243603429431911E+05   5.11298640744450211E+05   5.11352766060029098E+05   5.11406049665344763E+05
             5.11457960326560482E+05   5.11507369363750215E+05   5.11551403540092288E+05   5.11594518655160267E+05   5.11637944554809132E+05
             5.11682055542301561E+05   5.11726540669202455E+05   5.11771041645647667E+05   5.11815433551525522E+05   5.11859813084038789E+05
             5.11904282560116902E+05   5.11948818435395428E+05   5.11993388184718788E+05   5.12038037837768439E+05   5.12082812576801924E+05
             5.12127735714192444E+05   5.12172825432355225E+05   5.12218089756070171E+05   5.12263509521366388E+05   5.12309035483427695E+05
             5.12354595626670402E+05   5.12400041464828129E+05   5.12444985638765211E+05   5.12488582680544467E+05   5.12531285130347533E+05
             5.12573425452620198E+05   5.12615517129804066E+05   5.12657862673870637E+05   5.12700568503449787E+05   5.12743652272316162E+05
             5.12787136530704214E+05   5.12831059827823017E+05   5.12875460770594713E+05   5.12920255313131667E+05   5.12965024785669462E+05
             5.13009110410246300E+05   5.13052162575439434E+05   5.13093788923151384E+05   5.13135606687762949E+05   5.13177351279188704E+05
             5.13218280301534105E+05   5.13257885679407860E+05   5.13295499500811391E+05   5.13333401331907487E+05   5.13372038826904783E+05
             5.13411707907927106E+05   5.13452535251424531E+05   5.13494562739415327E+05   5.13537822465248522E+05   5.13582322112539725E+05
             5.13627994390576612E+05   5.13674683538147889E+05   5.13722243732671661E+05   5.13770562661932141E+05   5.13819534507575154E+05
             5.13869047118565359E+05   5.13918986117337656E+05   5.13969242318249133E+05   5.14019720035215025E+05   5.14070353054911306E+05
             5.14121264600698254E+05   5.14172229685929720E+05   5.14223292395925208E+05   5.14274463447379472E+05   5.14325761748136953E+05
             5.14376926465362310E+05   5.14428248582669708E+05   5.14479806711101905E+05   5.14531286030407529E+05   5.14582015648201748E+05
             5.14630882176675659E+05   5.14672295022492472E+05   5.14716550077758497E+05   0.00000000000000000E+00   0.00000000000000000E+00
             0.00000000000000000E+00   0.00000000000000000E+00   0.00000000000000000E+00   0.00000000000000000E+00   0.00000000000000000E+00
             0.00000000000000000E+00   0.00000000000000000E+00   0.00000000000000000E+00   0.00000000000000000E+00   0.00000000000000000E+00
             0.00000000000000000E+00   0.00000000000000000E+00   0.00000000000000000E+00   0.00000000000000000E+00   0.00000000000000000E+00
             0.00000000000000000E+00   0.00000000000000000E+00   0.00000000000000000E+00   0.00000000000000000E+00   0.00000000000000000E+00
             0.00000000000000000E+00   0.00000000000000000E+00
 ETA=    6   0.00000000000000000E+00   0.00000000000000000E+00   0.00000000000000000E+00   5.08600840514146839E+05   5.08658187901281344E+05
             5.08712376687873795E+05   5.08763992918965989E+05   0.00000000000000000E+00   0.00000000000000000E+00   0.00000000000000000E+00
             0.00000000000000000E+00   0.00000000000000000E+00   5.09071873494046682E+05   5.09135143722076493E+05   5.09196574888402829E+05
             5.09255703236720816E+05   5.09312692538140691E+05   5.09368063519189600E+05   5.09422348764768452E+05   5.09475620913202176E+05
             5.09528451221493422E+05   5.09580755043331068E+05   5.09632788066948124E+05   5.09684602341095975E+05   5.09736289223004016E+05
             5.09788026093422493E+05   5.09839801174209686E+05   5.09891619383393438E+05   5.09943501426346658E+05   5.09995462641579739E+05
             5.10047506750503439E+05   5.10099628849276516E+05   5.10151819961515255E+05   5.10204071758227248E+05   5.10256382914942980E+05
             5.10308762929944322E+05   5.10361227960930031E+05   5.10413849069787946E+05   5.10466687178904947E+05   5.10520015103781479E+05
             5.10574751721815497E+05   5.10630314424614655E+05   5.10686977941823250E+05   5.10744066251102660E+05   5.10801517278211715E+05
             5.10859255777815590E+05   5.10917182643984794E+05   5.10975156055524596E+05   5.11032999333343643E+05   5.11090501623622375E+05
             5.11147398686837929E+05   5.11203362222083553E+05   5.11258167255634617E+05   5.11311861945187906E+05   5.11364443664225168E+05
             5.11415419899411558E+05   5.11463860939432634E+05   5.11508675774033938E+05   5.11552394475974899E+05   5.11596269988490094E+05
             5.11640715331760119E+05   5.11685479608909693E+05   5.11730236127093318E+05   5.11774867540962703E+05   5.11819445847880736E+05
             5.11864067467110988E+05   5.11908739268584410E+05   5.11953430446420331E+05   5.11998153264485183E+05   5.12042948530642723E+05
             5.12087857051139988E+05   5.12132907774498453E+05   5.12178110141809098E+05   5.12223447149538319E+05   5.12268876785457483E+05
             5.12314332234380767E+05   5.12359665164430102E+05   5.12404530616569042E+05   5.12448382878854987E+05   5.12491348406820383E+05
             5.12533749561360048E+05   5.12576067200795340E+05   5.12618593639497587E+05   5.12661422878149548E+05   5.12704573454044468E+05
             5.12748064256408717E+05   5.12791917807251331E+05   5.12836143020246818E+05   5.12880627322027867E+05   5.12924965496208810E+05
             5.12968563097350765E+05   5.13011114341477281E+05   5.13052661291295604E+05   5.13094065369219810E+05   5.13135222828657832E+05
             5.13175625657298893E+05   5.13214921611157479E+05   5.13253018853944319E+05   5.13291150034483348E+05   5.13329893912021536E+05
             5.13369602215162711E+05   5.13410430527656921E+05   5.13452447855500970E+05   5.13495702384679695E+05   5.13540208503333153E+05
             5.13585902449938993E+05   5.13632633759043762E+05   5.13680260215896415E+05   5.13728670240775857E+05   5.13777757144002768E+05
             5.13827407842571731E+05   5.13877508492625842E+05   5.13927953448733489E+05   5.13978653487936303E+05   5.14029549916928110E+05
             5.14080677047043864E+05   5.14131868757423363E+05   5.14183140523784037E+05   5.14234473628319975E+05   5.14285824254234438E+05
             5.14336956737649976E+05   5.14387979862026754E+05   5.14438862631525437E+05   5.14489179451782547E+05   5.14538165844594419E+05
             5.14584759283969062E+05   5.14626424164703465E+05   5.14666680003080808E+05   0.00000000000000000E+00   0.00000000000000000E+00
             0.00000000000000000E+00   0.00000000000000000E+00   0.00000000000000000E+00   0.00000000000000000E+00   0.00000000000000000E+00
             0.00000000000000000E+00   0.00000000000000000E+00   0.00000000000000000E+00   0.00000000000000000E+00   0.00000000000000000E+00
             0.00000000000000000E+00   0.00000000000000000E+00   0.00000000000000000E+00   0.00000000000000000E+00   0.00000000000000000E+00
             0.00000000000000000E+00   0.00000000000000000E+00   0.00000000000000000E+00   0.00000000000000000E+00   0.00000000000000000E+00
             0.00000000000000000E+00   0.00000000000000000E+00
 ETA=    7   0.00000000000000000E+00   5.08450892521758098E+05   5.08505278887990396E+05   5.08563726948911906E+05   5.08619547606310400E+05
             5.08673114652137680E+05   5.08724796184540319E+05   5.08775410576842143E+05   5.08826731546820432E+05   5.08881172834954108E+05
             5.08935084739858634E+05   5.08987690116999089E+05   5.09039604993235494E+05   5.09101017096199852E+05   5.09161230720838765E+05
             5.09219594069230487E+05   5.09276088197155099E+05   5.09331095654418925E+05   5.09385047027150693E+05   5.09438125133957481E+05
             5.09490728218220815E+05   5.09542835603561369E+05   5.09594713074506493E+05   5.09646406356711930E+05   5.09698007359092764E+05
             5.09749608756781614E+05   5.09801263276431127E+05   5.09852977535819227E+05   5.09904773610489094E+05   5.09956665283182054E+05
             5.10008654830416723E+05   5.10060737121243437E+05   5.10112904362368805E+05   5.10165150989706279E+05   5.10217480051326507E+05
             5.10269908824673912E+05   5.10322472544268589E+05   5.10375237177899631E+05   5.10428317546286155E+05   5.10481975302159553E+05
             5.10536720504218305E+05   5.10592324374537799E+05   5.10648802792441915E+05   5.10705751205188630E+05   5.10763037808598951E+05
             5.10820571305608726E+05   5.10878244668290834E+05   5.10935914622373704E+05   5.10993407573005359E+05   5.11050521831667749E+05
             5.11107015597195656E+05   5.11162609404900169E+05   5.11217087265866227E+05   5.11270379334223864E+05   5.11322411905148125E+05
             5.11372783398603497E+05   5.11420861154795159E+05   5.11466369599680009E+05   5.11510798947305651E+05   5.11555223889111134E+05
             5.11600016262800782E+05   5.11645000288187119E+05   5.11689927522629325E+05   5.11734711320817762E+05   5.11779405616937904E+05
             5.11824090294393827E+05   5.11868791676491383E+05   5.11913501828760607E+05   5.11958232699776068E+05   5.12003022048300772E+05
             5.12047911678279925E+05   5.12092930048728129E+05   5.12138084360145731E+05   5.12183357604866265E+05   5.12228710123587865E+05
             5.12274073662736278E+05   5.12319300988551462E+05   5.12364093766196631E+05   5.12408078266125347E+05   5.12451252966839878E+05
             5.12493900646974565E+05   5.12536430151746958E+05   5.12579100961597520E+05   5.12622001696038875E+05   5.12665155121002113E+05
             5.12708576357354061E+05   5.12752274278242548E+05   5.12796232611116196E+05   5.12840320958358701E+05   5.12884173912405560E+05
             5.12927299244058377E+05   5.12969467212567804E+05   5.13010852659758646E+05   5.13051932133850700E+05   5.13092668205473339E+05
             5.13132731093022216E+05   5.13171913127999869E+05   5.13210338626278797E+05   5.13248736057644594E+05   5.13287657677963143E+05
             5.13327456183287723E+05   5.13368313289537386E+05   5.13410330727441877E+05   5.13453578581647540E+05   5.13498083050077839E+05
             5.13543789861109806E+05   5.13590561641267966E+05   5.13638261497327068E+05   5.13686775219461124E+05   5.13735991485819977E+05
             5.13785793176438776E+05   5.13836063166505075E+05   5.13886693197352695E+05   5.13937591297565610E+05   5.13988690665221890E+05
             5.14039961859147646E+05   5.14091291972053295E+05   5.14142649639284122E+05   5.14193979950503679E+05   5.14245191265328031E+05
             5.14296097525267221E+05   5.14346658458205173E+05   5.14396719256182900E+05   5.14445831809522875E+05   5.14493301635394804E+05
             5.14538291977995483E+05   5.14579765398333955E+05   5.14619048899198649E+05   5.14655346938808565E+05   0.00000000000000000E+00
             0.00000000000000000E+00   0.00000000000000000E+00   0.00000000000000000E+00   0.00000000000000000E+00   0.00000000000000000E+00
             0.00000000000000000E+00   0.00000000000000000E+00   0.00000000000000000E+00   0.00000000000000000E+00   0.00000000000000000E+00
             0.00000000000000000E+00   0.00000000000000000E+00   0.00000000000000000E+00   0.00000000000000000E+00   0.00000000000000000E+00
             0.00000000000000000E+00   0.00000000000000000E+00   0.00000000000000000E+00   0.00000000000000000E+00   0.00000000000000000E+00
             0.00000000000000000E+00   0.00000000000000000E+00
 ETA=    8   0.00000000000000000E+00   5.08413287101376452E+05   5.08467557462406578E+05   5.08524596160869522E+05   5.08580009434803214E+05
             5.08633666271814145E+05   5.08685800356610562E+05   5.08737171989015129E+05   5.08789018126886338E+05   5.08843019263066410E+05
             5.08896835064187006E+05   5.08950521285374067E+05   5.09005115906024061E+05   5.09065635505355196E+05   5.09125101547365310E+05
             5.09182925097324012E+05   5.09238995818922704E+05   5.09293632750906923E+05   5.09347238340043463E+05   5.09400073146401846E+05
             5.09452426015701494E+05   5.09504367754740524E+05   5.09556098789441457E+05   5.09607682200110750E+05   5.09659194933708932E+05
             5.09710702414589003E+05   5.09762262468218163E+05   5.09813896512970852E+05   5.09865628723428061E+05   5.09917472083740809E+05
             5.09969428145514452E+05   5.10021491937753279E+05   5.10073657142778859E+05   5.10125921249687439E+05   5.10178291773184377E+05
             5.10230792207241466E+05   5.10283466211074032E+05   5.10336384202910645E+05   5.10389669963159598E+05   5.10443544289756450E+05
             5.10498301882622996E+05   5.10553877540598216E+05   5.10610192459438345E+05   5.10666979025201406E+05   5.10724084089558513E+05
             5.10781400127746980E+05   5.10838811895222461E+05   5.10896176032145740E+05   5.10953323693949089E+05   5.11010062190582335E+05
             5.11066167685687367E+05   5.11121392036917328E+05   5.11175527930023498E+05   5.11228462441549986E+05   5.11280087860829604E+05
             5.11330105368876189E+05   5.11378137763734325E+05   5.11424226532600587E+05   5.11469321680820198E+05   5.11514259641475684E+05
             5.11559357764664397E+05   5.11604517655909702E+05   5.11649573527979548E+05   5.11694469990682614E+05   5.11739249404186383E+05
             5.11783977478983696E+05   5.11828691787443066E+05   5.11873406454845099E+05   5.11918142667538486E+05   5.11962936280389258E+05
             5.12007823917404923E+05   5.12052828811424843E+05   5.12097954236944497E+05   5.12143181786359346E+05   5.12188471426283941E+05
             5.12233752118528995E+05   5.12278882211981399E+05   5.12323611243698513E+05   5.12367666819127859E+05   5.12411012746111432E+05
             5.12453874569512031E+05   5.12496580702784180E+05   5.12539352506991941E+05   5.12582276205216884E+05   5.12625378334241395E+05
             5.12668670454238949E+05   5.12712151323732571E+05   5.12755787301746721E+05   5.12799443560383981E+05   5.12842809876555461E+05
             5.12885503898843715E+05   5.12927364544501179E+05   5.12968562788707786E+05   5.13009385208615742E+05   5.13049825149262673E+05
             5.13089684734917246E+05   5.13128863651374704E+05   5.13167535584051802E+05   5.13206191080374643E+05   5.13245300674067810E+05
             5.13285198974839994E+05   5.13326089428436419E+05   5.13368105019299837E+05   5.13411339893067954E+05   5.13455836648329510E+05
             5.13501555697557400E+05   5.13548376182370295E+05   5.13596164513465657E+05   5.13644798997218546E+05   5.13694159327561094E+05
             5.13744120972563047E+05   5.13794560227512731E+05   5.13845362133027869E+05   5.13896426623388310E+05   5.13947672449939884E+05
             5.13999033927040524E+05   5.14050417671370204E+05   5.14101757061221579E+05   5.14152967644673656E+05   5.14203931282426638E+05
             5.14254482360169000E+05   5.14304492065992847E+05   5.14353739703105588E+05   5.14401818938334123E+05   5.14448188018481422E+05
             5.14492305178956420E+05   5.14533820877773629E+05   5.14573363874832750E+05   5.14611013520107081E+05   5.14648389334962994E+05
             5.14689223365170183E+05   0.00000000000000000E+00   0.00000000000000000E+00   0.00000000000000000E+00   0.00000000000000000E+00
             0.00000000000000000E+00   0.00000000000000000E+00   0.00000000000000000E+00   0.00000000000000000E+00   0.00000000000000000E+00
             0.00000000000000000E+00   0.00000000000000000E+00   0.00000000000000000E+00   0.00000000000000000E+00   0.00000000000000000E+00
             0.00000000000000000E+00   0.00000000000000000E+00   0.00000000000000000E+00   0.00000000000000000E+00   0.00000000000000000E+00
             0.00000000000000000E+00   0.00000000000000000E+00
 ETA=    9   5.08321692883541458E+05   5.08376267149649619E+05   5.08431029495811788E+05   5.08486895717809675E+05   5.08541613385029719E+05
             5.08594988500780135E+05   5.08647246453668049E+05   5.08699019283679023E+05   5.08751278841431311E+05   5.08805056981437723E+05
             5.08859117460676993E+05   5.08913697916891600E+05   5.08969799367548083E+05   5.09029515322764753E+05   5.09088422128361766E+05
             5.09145784893110627E+05   5.09201430555662373E+05   5.09255660428631410E+05   5.09308890423561039E+05   5.09361430685526924E+05
             5.09413525526776386E+05   5.09465296125652269E+05   5.09516889991059550E+05   5.09568376841973572E+05   5.09619816391103552E+05
             5.09671259223461733E+05   5.09722755415473599E+05   5.09774337091939233E+05   5.09826030615708267E+05   5.09877849096502294E+05
             5.09929793923745921E+05   5.09981860576266190E+05   5.10034044309005199E+05   5.10086345463726902E+05   5.10138775269421283E+05
             5.10191361150745885E+05   5.10244150192304514E+05   5.10297214460055344E+05   5.10350670113953995E+05   5.10404692815078248E+05
             5.10459466664295120E+05   5.10514985255881678E+05   5.10571151728509343E+05   5.10627768228738569E+05   5.10684681331578176E+05
             5.10741771909469622E+05   5.10798918197383406E+05   5.10855977689416031E+05   5.10912786820480716E+05   5.10969161712474946E+05
             5.11024894257761945E+05   5.11079760776467214E+05   5.11133567780004581E+05   5.11186190193990304E+05   5.11237515502073453E+05
             5.11287336106374220E+05   5.11335452525792120E+05   5.11382010067675787E+05   5.11427660540008568E+05   5.11473032265821821E+05
             5.11518395372726372E+05   5.11563715814864321E+05   5.11608894796306733E+05   5.11653901592391485E+05   5.11698772077523347E+05
             5.11743562386759440E+05   5.11788315860243689E+05   5.11833061449069588E+05   5.11877828370461299E+05   5.11922650648857176E+05
             5.11967558826689026E+05   5.12012570349635731E+05   5.12057684569520468E+05   5.12102881261789880E+05   5.12148119344195293E+05
             5.12193326642606116E+05   5.12238371097424009E+05   5.12283044746581290E+05   5.12327140772432089E+05   5.12370619300386286E+05
             5.12413650179677585E+05   5.12456488986428478E+05   5.12499320958001656E+05   5.12542228612675448E+05   5.12585240118896996E+05
             5.12628364075487305E+05   5.12671593110380229E+05   5.12714885253739078E+05   5.12758113283585757E+05   5.12801025329908764E+05
             5.12843335519417073E+05   5.12884931907510269E+05   5.12925945144725323E+05   5.12966562437269953E+05   5.13006797172474035E+05
             5.13046542295909370E+05   5.13085764385816641E+05   5.13124630968835729E+05   5.13163505413422477E+05   5.13202778034354444E+05
             5.13242760236534290E+05   5.13283671566622332E+05   5.13325673149286304E+05   5.13368885318581073E+05   5.13413372020372190E+05
             5.13459111701187503E+05   5.13505998278772691E+05   5.13553896741711593E+05   5.13602672959790216E+05   5.13652193534551247E+05
             5.13702323310891341E+05   5.13752929381763504E+05   5.13803887668182724E+05   5.13855087688897271E+05   5.13906433628598519E+05
             5.13957838842205238E+05   5.14009209431791794E+05   5.14060456238885585E+05   5.14111474931482575E+05   5.14162134572246228E+05
             5.14212274738861539E+05   5.14261727750640188E+05   5.14310259653571004E+05   5.14357532915747783E+05   5.14403155634525116E+05
             5.14446798602339812E+05   5.14488351811672910E+05   5.14528133426491520E+05   5.14566390137710550E+05   5.14603857389567711E+05
             5.14640838328631420E+05   5.14681195022919623E+05   0.00000000000000000E+00   0.00000000000000000E+00   0.00000000000000000E+00
             0.00000000000000000E+00   0.00000000000000000E+00   0.00000000000000000E+00   0.00000000000000000E+00   0.00000000000000000E+00
             0.00000000000000000E+00   0.00000000000000000E+00   0.00000000000000000E+00   0.00000000000000000E+00   0.00000000000000000E+00
             0.00000000000000000E+00   0.00000000000000000E+00   0.00000000000000000E+00   0.00000000000000000E+00   0.00000000000000000E+00
             0.00000000000000000E+00   0.00000000000000000E+00
 ETA=   10   5.08287579925340891E+05   5.08342905030305788E+05   5.08397403597026889E+05   5.08451768886311154E+05   5.08505176677346812E+05
             5.08557680893532874E+05   5.08609554291221080E+05   5.08661284455601417E+05   5.08713631675591285E+05   5.08767239575618238E+05
             5.08821523783226556E+05   5.08876717895357171E+05   5.08933683260292339E+05   5.08992846607735730E+05   5.09051333052952483E+05
             5.09108244139350310E+05   5.09163405564726854E+05   5.09217157191257691E+05   5.09269958664481353E+05   5.09322156847265433E+05
             5.09373982544960629E+05   5.09425572076537472E+05   5.09477039031538414E+05   5.09528445249212440E+05   5.09579832475644536E+05
             5.09631236756107362E+05   5.09682699323871522E+05   5.09734257010496047E+05   5.09785938168414112E+05   5.09837756304409471E+05
             5.09889712731831591E+05   5.09941803329740593E+05   5.09994024722372007E+05   5.10046379568310746E+05   5.10098881755378679E+05
             5.10151560744868941E+05   5.10204464182159747E+05   5.10257661898720777E+05   5.10311256803219381E+05   5.10365385995200777E+05
             5.10420173211975256E+05   5.10475626215088705E+05   5.10531654746769636E+05   5.10588099700338091E+05   5.10644814680651005E+05
             5.10701674839498359E+05   5.10758554694279039E+05   5.10815313499433163E+05   5.10871793313609844E+05   5.10927819284726167E+05
             5.10983198157995183E+05   5.11037727706862090E+05   5.11091231334927666E+05   5.11143586789052817E+05   5.11194692650519661E+05
             5.11244412432142009E+05   5.11292656304435688E+05   5.11339591343052860E+05   5.11385690319885209E+05   5.11431426515287487E+05
             5.11477031272938009E+05   5.11522514834078029E+05   5.11567826446526742E+05   5.11612954321980767E+05   5.11657932157030795E+05
             5.11702810532828211E+05   5.11747635124695487E+05   5.11792442774675903E+05   5.11837267125542276E+05   5.11882140200492344E+05
             5.11927087362123886E+05   5.11972121111643384E+05   5.12017237363090273E+05   5.12062414036965347E+05   5.12107609178585175E+05
             5.12152751618911687E+05   5.12197721003620536E+05   5.12242344339186151E+05   5.12286459729594178E+05   5.12330030396309798E+05
             5.12373180932092888E+05   5.12416107751816220E+05   5.12458963614698150E+05   5.12501824192430999E+05   5.12544717184376379E+05
             5.12587649488723138E+05   5.12630611582882004E+05   5.12673561198106676E+05   5.12716387046301679E+05   5.12758891049399448E+05
             5.12800863097740104E+05   5.12842224439525336E+05   5.12883068250562355E+05   5.12923525767461222E+05   5.12963623152043496E+05
             5.13003310031980684E+05   5.13042589491611056E+05   5.13081609119740664E+05   5.13120653723115101E+05   5.13160049795946979E+05
             5.13200086193996714E+05   5.13240993677339866E+05   5.13282959873891785E+05   5.13326135490381741E+05   5.13370611548656481E+05
             5.13416386213446560E+05   5.13463362827536592E+05   5.13511398200847267E+05   5.13560340302426077E+05   5.13610038428068918E+05
             5.13660343812448962E+05   5.13711112552304810E+05   5.13762210580419458E+05   5.13813517047894769E+05   5.13864923994324286E+05
             5.13916331386081700E+05   5.13967638647103275E+05   5.14018743246672209E+05   5.14069530133070250E+05   5.14119864502759243E+05
             5.14169590401017107E+05   5.14218534071164497E+05   5.14266480373662256E+05   5.14313165892726101E+05   5.14358322432450892E+05
             5.14401762538405077E+05   5.14443475523411878E+05   5.14483684107593843E+05   5.14522698980454355E+05   5.14561040789380728E+05
             5.14599196704301517E+05   5.14638214440468117E+05   5.14676277206169849E+05   5.14714467171939788E+05   0.00000000000000000E+00
             0.00000000000000000E+00   0.00000000000000000E+00   0.00000000000000000E+00   0.00000000000000000E+00   0.00000000000000000E+00
             0.00000000000000000E+00   0.00000000000000000E+00   0.00000000000000000E+00   0.00000000000000000E+00   0.00000000000000000E+00
             0.00000000000000000E+00   0.00000000000000000E+00   0.00000000000000000E+00   0.00000000000000000E+00   0.00000000000000000E+00
             0.00000000000000000E+00   0.00000000000000000E+00
 ETA=   11   5.08255397598651587E+05   5.08311918096603826E+05   5.08366073610642808E+05   5.08418896139204968E+05   5.08470628734393336E+05
             5.08521787204999768E+05   5.08572811491947912E+05   5.08624061590838304E+05   5.08676125442033925E+05   5.08729484240908409E+05
             5.08783840662786213E+05   5.08839391736478254E+05   5.08896833252833108E+05   5.08955678663869272E+05   5.09013865035054565E+05
             5.09070304143368034E+05   5.09124898816916975E+05   5.09178086645529023E+05   5.09230396496579808E+05   5.09282208948298823E+05
             5.09333750773273699E+05   5.09385153784205671E+05   5.09436505639133393E+05   5.09487850335876166E+05   5.09539209391755518E+05
             5.09590602032061375E+05   5.09642060453013401E+05   5.09693622620611568E+05   5.09745318316121004E+05   5.09797161169865867E+05
             5.09849152082939923E+05   5.09901287007495237E+05   5.09953563540491799E+05   5.10005986005224171E+05   5.10058569940788788E+05
             5.10111345474033558E+05   5.10164359034012188E+05   5.10217675710071169E+05   5.10271384190223122E+05   5.10325591431502660E+05
             5.10380384532034048E+05   5.10435769702237099E+05   5.10491667035895633E+05   5.10547941484789131E+05   5.10604455710728944E+05
             5.10661083938999916E+05   5.10717699740745011E+05   5.10774165096267941E+05   5.10830328164716135E+05   5.10886023605648661E+05
             5.10941072768967715E+05   5.10995293218575884E+05   5.11048526290307229E+05   5.11100659970519948E+05   5.11151610042818531E+05
             5.11201291102451272E+05   5.11249675738592865E+05   5.11296923531027860E+05   5.11343391857447568E+05   5.11389444278238865E+05
             5.11435279363866430E+05   5.11480933734817780E+05   5.11526389562449825E+05   5.11571650123300031E+05   5.11616749848846172E+05
             5.11661736410903104E+05   5.11706655872402189E+05   5.11751548292734777E+05   5.11796448818564357E+05   5.11841387353433005E+05
             5.11886385156195029E+05   5.11931450728777447E+05   5.11976577020648459E+05   5.12021740186606883E+05   5.12066897756262799E+05
             5.12111981076640077E+05   5.12156881929066265E+05   5.12201455323346134E+05   5.12245571029350394E+05   5.12289195529241173E+05
             5.12332419392992510E+05   5.12375393120818655E+05   5.12418240841529099E+05   5.12461029074530525E+05   5.12503783979349420E+05
             5.12546512354395178E+05   5.12589205888335884E+05   5.12631827721974580E+05   5.12674286733323126E+05   5.12716431182976696E+05
             5.12758107832029287E+05   5.12799261171355669E+05   5.12839958266123082E+05   5.12880296166576969E+05   5.12920306336511741E+05
             5.12959969816267258E+05   5.12999306492396630E+05   5.13038442439795472E+05   5.13077608461229422E+05   5.13117082548292005E+05
             5.13157133598582586E+05   5.13198001053381420E+05   5.13239900641267188E+05   5.13283021210624080E+05   5.13327487197968469E+05
             5.13373316447102639E+05   5.13420413862286601E+05   5.13468619086241990E+05   5.13517755293471273E+05   5.13567649863071274E+05
             5.13618137971459364E+05   5.13669064101374825E+05   5.13720284860633721E+05   5.13771670749621757E+05   5.13823104929387744E+05
             5.13874478781385289E+05   5.13925685759053624E+05   5.13976616736685915E+05   5.14027153372792702E+05   5.14077163604464324E+05
             5.14126500576884951E+05   5.14175002703414531E+05   5.14222487348843017E+05   5.14268757121129835E+05   5.14313634260726336E+05
             5.14357016839630553E+05   5.14398932456639479E+05   5.14439555498023168E+05   5.14479156527097803E+05   5.14518096807535796E+05
             5.14556712918187783E+05   5.14595413138704374E+05   5.14633559458370844E+05   5.14670552858446375E+05   5.14706952813178767E+05
             5.14741438240647956E+05   5.14778653672237706E+05   0.00000000000000000E+00   0.00000000000000000E+00   0.00000000000000000E+00
             0.00000000000000000E+00   0.00000000000000000E+00   0.00000000000000000E+00   0.00000000000000000E+00   0.00000000000000000E+00
             0.00000000000000000E+00   0.00000000000000000E+00   0.00000000000000000E+00   0.00000000000000000E+00   0.00000000000000000E+00
             0.00000000000000000E+00   0.00000000000000000E+00
 ETA=   12   0.00000000000000000E+00   5.08283522227250331E+05   5.08337322057896119E+05   5.08388110333989025E+05   5.08437678381596052E+05
             5.08487031852248881E+05   5.08536835493801918E+05   5.08587245452986332E+05   5.08638690215905779E+05   5.08691674378187337E+05
             5.08745930211246479E+05   5.08801617507578339E+05   5.08859273513476015E+05   5.08917987383860745E+05   5.08976032630542468E+05
             5.09031949971815862E+05   5.09085873592446966E+05   5.09138403759593493E+05   5.09190156756498909E+05   5.09241544669220631E+05
             5.09292789428972523E+05   5.09344007343525416E+05   5.09395260020368092E+05   5.09446566636499716E+05   5.09497925837908057E+05
             5.09549336431105272E+05   5.09600820594874967E+05   5.09652416216792713E+05   5.09704153942511883E+05   5.09756046827807382E+05
             5.09808094719707908E+05   5.09860293178045249E+05   5.09912640350716945E+05   5.09965141660851310E+05   5.10017813536076224E+05
             5.10070685882565042E+05   5.10123802910645376E+05   5.10177223892800510E+05   5.10231024310659384E+05   5.10285288105144922E+05
             5.10340077726087824E+05   5.10395393477562000E+05   5.10451163823600218E+05   5.10507270167123643E+05   5.10563584401293483E+05
             5.10619982992211648E+05   5.10676340839360724E+05   5.10732523681902618E+05   5.10788386392532848E+05   5.10843773646436748E+05
             5.10898521240143571E+05   5.10952465238578909E+05   5.11005464638011123E+05   5.11057420533586468E+05   5.11108266215949669E+05
             5.11157951031611185E+05   5.11206480900435301E+05   5.11253998742290074E+05   5.11300783048768528E+05   5.11347119382548321E+05
             5.11393178193259751E+05   5.11439010173371003E+05   5.11484619883726991E+05   5.11530022635164729E+05   5.11575254888115276E+05
             5.11620362768474326E+05   5.11665391694674909E+05   5.11710382296963420E+05   5.11755369449158607E+05   5.11800380899613490E+05
             5.11845434627331037E+05   5.11890535901058523E+05   5.11935675148632145E+05   5.11980826972108334E+05   5.12025948746481037E+05
             5.12070975094772468E+05   5.12115809295677231E+05   5.12160328767509956E+05   5.12204426321892242E+05   5.12248070882573782E+05
             5.12291327869044151E+05   5.12334312386725156E+05   5.12377123951018672E+05   5.12419819430977281E+05   5.12462423427700880E+05
             5.12504944139565399E+05   5.12547376869484899E+05   5.12589693402515317E+05   5.12631823733511090E+05   5.12673654845825513E+05
             5.12715076158761512E+05   5.12756049425926467E+05   5.12796624859825999E+05   5.12836876338987437E+05   5.12876834332709783E+05
             5.12916494309170812E+05   5.12955880685710988E+05   5.12995098912816669E+05   5.13034339532632963E+05   5.13073842938219837E+05
             5.13113860640003579E+05   5.13154640348542307E+05   5.13196431677444838E+05   5.13239476195310708E+05   5.13283937313915463E+05
             5.13329849293776380E+05   5.13377107904336939E+05   5.13425523996160715E+05   5.13474887408754905E+05   5.13524998937037366E+05
             5.13575676365737978E+05   5.13626753520747647E+05   5.13678079859694291E+05   5.13729520113064500E+05   5.13780952164151473E+05
             5.13832262838931347E+05   5.13883342686610180E+05   5.13934081213363679E+05   5.13984362328790303E+05   5.14034061524096876E+05
             5.14083045385126490E+05   5.14131172435697692E+05   5.14178294475745992E+05   5.14224266621695308E+05   5.14268972166113090E+05
             5.14312357198256010E+05   5.14354459665365866E+05   5.14395414826955297E+05   5.14435429481805942E+05   5.14474750404638587E+05
             5.14513597443123814E+05   5.14552133553753723E+05   5.14590095736771356E+05   5.14627093744659389E+05   5.14663790812783758E+05
             5.14698437490059121E+05   5.14734009687412879E+05   5.14768909879537125E+05   5.14806858116984135E+05   5.14845214311669988E+05
             5.14884956215442216E+05   0.00000000000000000E+00   0.00000000000000000E+00   0.00000000000000000E+00   0.00000000000000000E+00
             0.00000000000000000E+00   0.00000000000000000E+00   0.00000000000000000E+00   0.00000000000000000E+00   0.00000000000000000E+00
             0.00000000000000000E+00   0.00000000000000000E+00
 ETA=   13   0.00000000000000000E+00   5.08256252022295899E+05   5.08309723672242311E+05   5.08358084498657379E+05   5.08405356413838279E+05
             5.08452728708263952E+05   5.08501194726135291E+05   5.08550561678532278E+05   5.08601121736778179E+05   5.08653646325151843E+05
             5.08707660819907964E+05   5.08763295082761440E+05   5.08820925863305049E+05   5.08879700986188662E+05   5.08937874702604022E+05
             5.08993154015174543E+05   5.09046271564543655E+05   5.09098045260268787E+05   5.09149181450403295E+05   5.09200115714471904E+05
             5.09251058721709531E+05   5.09302103207066539E+05   5.09353280673106958E+05   5.09404579194644699E+05   5.09455973672224500E+05
             5.09507436406739114E+05   5.09558977924634644E+05   5.09610637241877557E+05   5.09662445447341714E+05   5.09714413871436787E+05
             5.09766540459069656E+05   5.09818819957962260E+05   5.09871250813366787E+05   5.09923839235158113E+05   5.09976602120706986E+05
             5.10029568710225285E+05   5.10082780591660819E+05   5.10136291125418327E+05   5.10190164348249382E+05   5.10244466759634437E+05
             5.10299242928406049E+05   5.10354486820285965E+05   5.10410132850326831E+05   5.10466074540558388E+05   5.10522192553096742E+05
             5.10578367461690854E+05   5.10634477227559255E+05   5.10690392362494313E+05   5.10745975067941588E+05   5.10801080353398749E+05
             5.10855558083711367E+05   5.10909261469623423E+05   5.10962066003614513E+05   5.11013885947475850E+05   5.11064669591118291E+05
             5.11114388961778837E+05   5.11163066531556891E+05   5.11210826833783649E+05   5.11257891572131834E+05   5.11304489285992400E+05
             5.11350766475243203E+05   5.11396780536947539E+05   5.11442551224918803E+05   5.11488103109038668E+05   5.11533474776622141E+05
             5.11578711323487049E+05   5.11623856994454283E+05   5.11668951655076351E+05   5.11714028996739944E+05   5.11759114670643583E+05
             5.11804223986488185E+05   5.11849359615425172E+05   5.11894509934417845E+05   5.11939648335864767E+05   5.11984732397536573E+05
             5.12029700270734204E+05   5.12074465579015843E+05   5.12118923825221660E+05   5.12162985231372295E+05   5.12206620564520534E+05
             5.12249876431684184E+05   5.12292840489460505E+05   5.12335591784673103E+05   5.12378178491300379E+05   5.12420624259946693E+05
             5.12462939839889994E+05   5.12505125587943185E+05   5.12547163215986744E+05   5.12589002678179124E+05   5.12630562820497027E+05
             5.12671765581424756E+05   5.12712585982715827E+05   5.12753063009065925E+05   5.12793253136937215E+05   5.12833181638787617E+05
             5.12872847506576567E+05   5.12912271779144241E+05   5.12951540068197472E+05   5.12990810760598048E+05   5.13030293393496773E+05
             5.13070223082245328E+05   5.13110855651874037E+05   5.13152485082755738E+05   5.13195436612521939E+05   5.13239911366482091E+05
             5.13285949484442535E+05   5.13333422917619464E+05   5.13382099748195149E+05   5.13431727283986402E+05   5.13482076096967387E+05
             5.13532947142153687E+05   5.13584166516080615E+05   5.13635580146151362E+05   5.13687050648967212E+05   5.13738454295704025E+05
             5.13789676967992447E+05   5.13840609633878921E+05   5.13891144346068497E+05   5.13941171092855977E+05   5.13990576001733018E+05
             5.14039241392912285E+05   5.14087047646822932E+05   5.14133877281478606E+05   5.14179624486713612E+05   5.14224211931918282E+05
             5.14267611094798718E+05   5.14309857382227725E+05   5.14351050640933623E+05   5.14391337400920282E+05   5.14430880680354778E+05
             5.14469815693553828E+05   5.14508207614461891E+05   5.14545947801517206E+05   5.14582843902206048E+05   5.14619293310986832E+05
             5.14654572805329051E+05   5.14690335760774498E+05   5.14726338012288441E+05   5.14764311615433544E+05   5.14802961129119678E+05
             5.14842444718042971E+05   5.14882546891948499E+05   5.14921330848740938E+05   5.14960028224635636E+05   5.14997899060234951E+05
             5.15037111636148999E+05   5.15078986706964672E+05   0.00000000000000000E+00   0.00000000000000000E+00   0.00000000000000000E+00
             0.00000000000000000E+00   0.00000000000000000E+00
 ETA=   14   0.00000000000000000E+00   5.08229555614916491E+05   5.08282718975291820E+05   5.08328080761511053E+05   5.08372852870717412E+05
             5.08418074778414855E+05   5.08465242017230368E+05   5.08513512941384222E+05   5.08563018252143927E+05   5.08615111759699939E+05
             5.08668823330671177E+05   5.08724258518550487E+05   5.08781599628644530E+05   5.08840696215795935E+05   5.08899482796238910E+05
             5.08953861830141512E+05   5.09006000982895377E+05   5.09056922979784256E+05   5.09107398634416226E+05   5.09157868351049721E+05
             5.09208520898449817E+05   5.09259418140016554E+05   5.09310556287181564E+05   5.09361885204457445E+05   5.09413360647653230E+05
             5.09464916529929265E+05   5.09516549295094854E+05   5.09568304413018748E+05   5.09620212801202491E+05   5.09672282178164809E+05
             5.09724507659430848E+05   5.09776883070838696E+05   5.09829407294074539E+05   5.09882087399554672E+05   5.09934940724702785E+05
             5.09987995793189737E+05   5.10041291610663990E+05   5.10094876064817712E+05   5.10148803652197763E+05   5.10203128161646309E+05
             5.10257880421506590E+05   5.10313048860684445E+05   5.10368572230077290E+05   5.10424353535312228E+05   5.10480281570174615E+05
             5.10536242050116591E+05   5.10592117265931040E+05   5.10647783372821810E+05   5.10703110370404087E+05   5.10757963626217621E+05
             5.10812206359546632E+05   5.10865707326590666E+05   5.10918356710302527E+05   5.10970080425871944E+05   5.11020838319875533E+05
             5.11070616586484830E+05   5.11119444764959160E+05   5.11167429816629097E+05   5.11214750788674806E+05   5.11261593281927228E+05
             5.11308083672966401E+05   5.11354281866524427E+05   5.11400217749392497E+05   5.11445922600770078E+05   5.11491436625094211E+05
             5.11536803979943972E+05   5.11582067496099800E+05   5.11627265699322917E+05   5.11672430748783750E+05   5.11717586368290358E+05
             5.11762745712770673E+05   5.11807909436308604E+05   5.11853064378659707E+05   5.11898183160582092E+05   5.11943223923324782E+05
             5.11988128347586491E+05   5.12032819113595877E+05   5.12077206428616541E+05   5.12121214070433227E+05   5.12164814300445432E+05
             5.12208039475300058E+05   5.12250955967624672E+05   5.12293626420839049E+05   5.12336091996888048E+05   5.12378376207406691E+05
             5.12420493091306125E+05   5.12462448702357244E+05   5.12504234666962875E+05   5.12545818623642903E+05   5.12587145245750318E+05
             5.12628161475678615E+05   5.12668852495143772E+05   5.12709249244304141E+05   5.12749394544027629E+05   5.12789306635883695E+05
             5.12828980843453435E+05   5.12868429134078615E+05   5.12907717525605345E+05   5.12946977351497568E+05   5.12986390623806044E+05
             5.13026173869696097E+05   5.13066587471497827E+05   5.13107982247530657E+05   5.13150842927181220E+05   5.13195378538529039E+05
             5.13241610569872661E+05   5.13289368263927638E+05   5.13338362569069490E+05   5.13388290893977450E+05   5.13438892828307056E+05
             5.13489955877372995E+05   5.13541303653656505E+05   5.13592783379630127E+05   5.13644259497153689E+05   5.13695610005309281E+05
             5.13746722810263978E+05   5.13797491971287178E+05   5.13847814752904640E+05   5.13897589637610770E+05   5.13946715009473322E+05
             5.13995089355061355E+05   5.14042613579551224E+05   5.14089195534715021E+05   5.14134757604405342E+05   5.14179247440083011E+05
             5.14222649157036736E+05   5.14264990445466829E+05   5.14306340669148485E+05   5.14346797439575021E+05   5.14386463432256482E+05
             5.14425417927409813E+05   5.14463692853635934E+05   5.14501257304220693E+05   5.14538062837448902E+05   5.14574466662581835E+05
             5.14610361330901796E+05   5.14646559736548981E+05   5.14683208505992894E+05   5.14721123945030267E+05   5.14759692159959290E+05
             5.14798805523262359E+05   5.14838132127565739E+05   5.14876544117534067E+05   5.14915283287327329E+05   5.14954182032774144E+05
             5.14994109486349509E+05   5.15035715369477228E+05   5.15078948331550346E+05   5.15123031014673878E+05   5.15161774161827983E+05
             5.15203063007341756E+05   0.00000000000000000E+00
 ETA=   15   0.00000000000000000E+00   0.00000000000000000E+00   5.08254414432304795E+05   5.08296662674707884E+05   5.08338837264387810E+05
             5.08381951872331905E+05   5.08428067866240395E+05   5.08475425322032475E+05   5.08523935037466174E+05   5.08575746788788354E+05
             5.08629197038348007E+05   5.08684342446753348E+05   5.08741170755277912E+05   5.08800871909262671E+05   5.08861008905442548E+05
             5.08913978069474048E+05   5.08964935491556127E+05   5.09014933056406619E+05   5.09064736337117909E+05   5.09114759079025476E+05
             5.09165154485872132E+05   5.09215947525476920E+05   5.09267095730058209E+05   5.09318502558787877E+05   5.09370119688445702E+05
             5.09421819487456523E+05   5.09473578794668079E+05   5.09525463626025361E+05   5.09577502648784604E+05   5.09629696865276375E+05
             5.09682037925173470E+05   5.09734519390745612E+05   5.09787141399881802E+05   5.09839912460619875E+05   5.09892850715067121E+05
             5.09945984245983185E+05   5.09999349815643684E+05   5.10052990471043682E+05   5.10106952727765718E+05   5.10161282763702620E+05
             5.10215999783437990E+05   5.10271087918250938E+05   5.10326489473753027E+05   5.10382115259627753E+05   5.10437861570735753E+05
             5.10493619808011979E+05   5.10549277472881717E+05   5.10604716991220310E+05   5.10659816380924487E+05   5.10714451059522398E+05
             5.10768496552572120E+05   5.10821835281443200E+05   5.10874369841567415E+05   5.10926035510775342E+05   5.10976800309024460E+05
             5.11026658707642753E+05   5.11075641766792105E+05   5.11123840282158169E+05   5.11171400298647641E+05   5.11218474496929615E+05
             5.11265172533499368E+05   5.11311554363664822E+05   5.11357656323418370E+05   5.11403514203563507E+05   5.11449169141553983E+05
             5.11494664300983248E+05   5.11540041045400372E+05   5.11585336418857798E+05   5.11630581049979548E+05   5.11675797022111481E+05
             5.11720995838010102E+05   5.11766176708801067E+05   5.11811325486724323E+05   5.11856414513132535E+05   5.11901402857254317E+05
             5.11946235646518297E+05   5.11990843405124499E+05   5.12035148324373935E+05   5.12079084845727426E+05   5.12122626454923186E+05
             5.12165794744944840E+05   5.12208639836110407E+05   5.12251211744455039E+05   5.12293546452975017E+05   5.12335668082139979E+05
             5.12377594320705917E+05   5.12419336972716264E+05   5.12460896800565941E+05   5.12502256383284635E+05   5.12543380848738423E+05
             5.12584236073626147E+05   5.12624814626223932E+05   5.12665141382487607E+05   5.12705249197623692E+05   5.12745150637263490E+05
             5.12784831565963686E+05   5.12824289770260104E+05   5.12863571409183147E+05   5.12902785037493799E+05   5.12942086027703830E+05
             5.12981665603450325E+05   5.13021775800582604E+05   5.13062821007660881E+05   5.13105645364193071E+05   5.13150340792139526E+05
             5.13196867757462955E+05   5.13244993602282368E+05   5.13294362207235419E+05   5.13344619696875801E+05   5.13395479220324836E+05
             5.13446721846024739E+05   5.13498176408761356E+05   5.13549696761414583E+05   5.13601152558749134E+05   5.13652425930928497E+05
             5.13703408743002103E+05   5.13753999754505930E+05   5.13804102951292123E+05   5.13853626730534132E+05   5.13902482379297609E+05
             5.13950583834509656E+05   5.13997850077375828E+05   5.14044209301277529E+05   5.14089604356236581E+05   5.14133999163646251E+05
             5.14177383904796967E+05   5.14219777376561891E+05   5.14261224096708233E+05   5.14301784200062510E+05   5.14341516823204758E+05
             5.14380464618214755E+05   5.14418649886479252E+05   5.14456086732590978E+05   5.14492844706495467E+05   5.14529332323208626E+05
             5.14565669725181302E+05   5.14602283827022358E+05   5.14639398363852932E+05   5.14677366490190616E+05   5.14715926873937598E+05
             5.14754870657435386E+05   5.14793859742544650E+05   5.14832442316093598E+05   5.14871150127122877E+05   5.14910050198112614E+05
             5.14949644575208193E+05   5.14990539918899362E+05   5.15032379000397574E+05   5.15074262488817330E+05   5.15112115539858176E+05
             5.15151428702103731E+05   5.15190871574160527E+05
 ETA=   16   0.00000000000000000E+00   0.00000000000000000E+00   0.00000000000000000E+00   5.08261628008672968E+05   5.08301730638562527E+05
             5.08343622641402646E+05   5.08389145973068138E+05   5.08436034810009005E+05   5.08483979384313454E+05   5.08535601501779864E+05
             5.08588822682729864E+05   0.00000000000000000E+00   5.08700073589152424E+05   5.08760334138992708E+05   5.08822440504072118E+05
             5.08873320858050371E+05   5.08922916160928435E+05   5.08971977976157621E+05   5.09021152959440311E+05   5.09070786230213591E+05
             5.09120982082061993E+05   5.09171727536083723E+05   5.09222944418320432E+05   5.09274487938521546E+05   5.09326326751659682E+05
             5.09378237874181999E+05   5.09430158134566620E+05   5.09482207134781755E+05   5.09534405172144470E+05   5.09586742079936550E+05
             5.09639206852323434E+05   5.09691795059476979E+05   5.09744509975611174E+05   5.09797362697394390E+05   5.09850372858317278E+05
             5.09903568558110681E+05   5.09956984788472124E+05   5.10010660351681174E+05   5.10064634028611763E+05   5.10118952089262253E+05
             5.10173621062450577E+05   5.10228622617812711E+05   5.10283902458945115E+05   5.10339378032937413E+05   5.10394952555618074E+05
             5.10450523355630925E+05   5.10505983699359407E+05   5.10561222606477735E+05   5.10616126032895409E+05   5.10670578808797116E+05
             5.10724467439257656E+05   5.10777685890160908E+05   5.10830146516213950E+05   5.10881791283704166E+05   5.10932593511835497E+05
             5.10982551960059209E+05   5.11031695597894082E+05   5.11080100209830736E+05   5.11127885979617829E+05   5.11175180451855646E+05
             5.11222079521492880E+05   5.11268641594517976E+05   5.11314906704943744E+05   5.11360913390599599E+05   5.11406703093275195E+05
             5.11452317913816718E+05   5.11497797827077389E+05   5.11543178503593605E+05   5.11588489267325494E+05   5.11633750957229990E+05
             5.11678973960369010E+05   5.11724156642829068E+05   5.11769284448478138E+05   5.11814329959518800E+05   5.11859253537649056E+05
             5.11904003670018574E+05   5.11948517688170541E+05   5.11992727524712041E+05   5.12036575849801244E+05   5.12080036990367749E+05
             5.12123124629979371E+05   5.12165876941496623E+05   5.12208334676017810E+05   5.12250530277032522E+05   5.12292489038981439E+05
             5.12334232357814966E+05   5.12375777444964391E+05   5.12417133019315486E+05   5.12458293780244247E+05   5.12499240466630377E+05
             5.12539952503770473E+05   5.12580426972370653E+05   5.12620683898694115E+05   5.12660750817950640E+05   5.12700642569005780E+05
             5.12740327240987448E+05   5.12779782242919493E+05   5.12819033275784168E+05   5.12858173042773560E+05   5.12897330449611880E+05
             5.12936659483483701E+05   5.12976374695585924E+05   5.13016860884517082E+05   5.13059824014978658E+05   5.13104855815334828E+05
             5.13151813286421821E+05   5.13200394699752273E+05   5.13250180261269910E+05   5.13300774438209366E+05   5.13351875759020622E+05
             5.13403269801583490E+05   5.13454800419978274E+05   5.13506332312006154E+05   5.13557741775340925E+05   5.13608915709739667E+05
             5.13659750415888906E+05   5.13710149705098243E+05   5.13760024894529663E+05   5.13809295336732001E+05   5.13857885453365219E+05
             5.13905723330987268E+05   5.13952743465602340E+05   5.13998890657437325E+05   5.14044123476747831E+05   5.14088417659601488E+05
             5.14131766702773457E+05   5.14174181172523706E+05   5.14215685730404221E+05   5.14256311861482332E+05   5.14296085300761159E+05
             5.14335020680102869E+05   5.14373136921858182E+05   5.14410477750891820E+05   5.14447206952161447E+05   5.14483809870770434E+05
             5.14520484845866275E+05   5.14557492406181293E+05   5.14594987579131906E+05   5.14633127096116485E+05   5.14671781099257525E+05
             5.14710706387823797E+05   5.14749594733604172E+05   5.14788186697571597E+05   5.14826595152497990E+05   5.14864875378696655E+05
             5.14903257765185321E+05   5.14942933901168057E+05   5.14982873039531871E+05   5.15021808513570926E+05   5.15057669355621852E+05
             5.15092292935226811E+05   5.15124469732529193E+05
 ETA=   17   0.00000000000000000E+00   0.00000000000000000E+00   0.00000000000000000E+00   0.00000000000000000E+00   0.00000000000000000E+00
             0.00000000000000000E+00   0.00000000000000000E+00   0.00000000000000000E+00   0.00000000000000000E+00   0.00000000000000000E+00
             0.00000000000000000E+00   0.00000000000000000E+00   0.00000000000000000E+00   5.08718829129520513E+05   5.08782555714608927E+05
             5.08831395017748582E+05   5.08879724913657468E+05   5.08928016126889270E+05   5.08976704887063417E+05   5.09026046171185968E+05
             5.09076109549372690E+05   5.09126858903321961E+05   5.09178195635400771E+05   5.09229959358319698E+05   5.09282119874041178E+05
             5.09334344682177412E+05   5.09386457900268608E+05   5.09438702348328545E+05   5.09491077776413877E+05   5.09543558893799724E+05
             5.09596136904303974E+05   5.09648814497180574E+05   5.09701601340646739E+05   5.09754512688882882E+05   5.09807570379879035E+05
             5.09860802843041427E+05   5.09914243646721006E+05   5.09967927908167941E+05   5.10021883442360850E+05   5.10076171182289254E+05
             5.10130777176858566E+05   5.10185684349420131E+05   5.10240841947110312E+05   5.10296173048429191E+05   5.10351587237159838E+05
             5.10406987787101651E+05   5.10462274004183244E+05   5.10517341489883664E+05   5.10572083748292178E+05   5.10626394075227960E+05
             5.10680168427680270E+05   5.10733310032568115E+05   5.10785738009314111E+05   5.10837398061224609E+05   5.10888266653329949E+05
             5.10938344339841104E+05   5.10987655134368280E+05   5.11036260243046563E+05   5.11084259829280840E+05   5.11131763099241711E+05
             5.11178854703360761E+05   5.11225590218350000E+05   5.11272011301061895E+05   5.11318157930495392E+05   5.11364071375601052E+05
             5.11409792638664716E+05   5.11455360490544583E+05   5.11500809486759128E+05   5.11546168022662983E+05   5.11591456182660186E+05
             5.11636683825726446E+05   5.11681849107499002E+05   5.11726937660364667E+05   5.11771922837493534E+05   5.11816766646587173E+05
             5.11861420855131757E+05   5.11905828790335625E+05   5.11949930272412021E+05   5.11993673888713762E+05   5.12037034079183941E+05
             5.12080019146532577E+05   5.12122659173202701E+05   5.12164988548924972E+05   5.12207037426064024E+05   5.12248832648564188E+05
             5.12290399168506148E+05   5.12331759043324622E+05   5.12372927629142418E+05   5.12413909153115586E+05   5.12454695669455512E+05
             5.12495274991842394E+05   5.12535645202568208E+05   5.12575821296267852E+05   5.12615829953956592E+05   5.12655714074583084E+05
             5.12695401831866999E+05   5.12734841201635427E+05   5.12774037529066205E+05   5.12813084087391500E+05   5.12852085786102689E+05
             5.12891142365649634E+05   5.12930371320074366E+05   5.12969941743414791E+05   5.13013442173192685E+05   5.13059077101343253E+05
             5.13106612640593725E+05   5.13155711153179989E+05   5.13205918743178714E+05   5.13256820533551683E+05   5.13308118219015189E+05
             5.13359617113332497E+05   5.13411186583976727E+05   5.13462701926866081E+05   5.13514043402438285E+05   5.13565100749101315E+05
             5.13615773360999883E+05   5.13665969070721359E+05   5.13715606928816764E+05   5.13764619008602691E+05   5.13812943160660740E+05
             5.13860519751805521E+05   5.13907296381408873E+05   5.13953232299122144E+05   5.13998299886740278E+05   5.14042485742361459E+05
             5.14085786472891399E+05   5.14128205962349428E+05   5.14169752971802431E+05   5.14210435878663324E+05   5.14250250375149830E+05
             5.14289182961876679E+05   5.14327248873239558E+05   5.14364509330065397E+05   5.14401178021172702E+05   5.14437855915470922E+05
             5.14474829165923933E+05   5.14512254676683922E+05   5.14550117499732121E+05   5.14588489336726663E+05   5.14627286753749242E+05
             5.14666251942790346E+05   5.14705079958837130E+05   5.14743497073365608E+05   5.14781382953350083E+05   5.14818652858927497E+05
             5.14855155011940165E+05   5.14893964301325963E+05   5.14932569720315863E+05   5.14969503105132608E+05   5.15003582912885991E+05
             5.15035275574981177E+05   5.15067270010561158E+05
 ETA=   18   0.00000000000000000E+00   0.00000000000000000E+00   0.00000000000000000E+00   0.00000000000000000E+00   0.00000000000000000E+00
             0.00000000000000000E+00   0.00000000000000000E+00   0.00000000000000000E+00   0.00000000000000000E+00   0.00000000000000000E+00
             0.00000000000000000E+00   0.00000000000000000E+00   0.00000000000000000E+00   0.00000000000000000E+00   5.08743279049957346E+05
             5.08789601326283300E+05   5.08836254740525386E+05   5.08883646185308171E+05   5.08931804882217140E+05   5.08980830440157093E+05
             5.09030753280307865E+05   5.09081502530211234E+05   5.09132975164693256E+05   5.09185085309324786E+05   5.09237695116542978E+05
             5.09290409120726225E+05   5.09342747477047262E+05   5.09395207494460046E+05   5.09447750906605332E+05   5.09500343690886861E+05
             5.09552991343523725E+05   5.09605712574913050E+05   5.09658527558263508E+05   5.09711456662117795E+05   5.09764523778136529E+05
             5.09817757196352701E+05   5.09871188901120797E+05   5.09924851064634393E+05   5.09978751051307190E+05   5.10032991275173088E+05
             5.10087517301240237E+05   5.10142321430011245E+05   5.10197356311887968E+05   5.10252549551513512E+05   5.10307816553814977E+05
             5.10363066360239114E+05   5.10418204358723538E+05   5.10473132381039381E+05   5.10527750796789711E+05   5.10581960143946635E+05
             5.10635664169609488E+05   5.10688772999654117E+05   5.10741209212154325E+05   5.10792919033244136E+05   5.10843880781216722E+05
             5.10894095601660258E+05   5.10943579707887140E+05   5.10992379219595809E+05   5.11040579714344989E+05   5.11088278690188483E+05
             5.11135551516841282E+05   5.11182449641139014E+05   5.11229014822276309E+05   5.11275287639070826E+05   5.11321308900987380E+05
             5.11367118505128485E+05   5.11412754320797219E+05   5.11458250143075536E+05   5.11503633913117868E+05   5.11548925516113872E+05
             5.11594134908461070E+05   5.11639260681639134E+05   5.11684289233054791E+05   5.11729195200167887E+05   5.11773942552765482E+05
             5.11818486227417365E+05   5.11862774978137866E+05   5.11906755016578129E+05   5.11950378440197848E+05   5.11993618536109803E+05
             5.12036480760251288E+05   5.12078990721189301E+05   5.12121178884313733E+05   5.12163073844341969E+05   5.12204704270892311E+05
             5.12246098403617681E+05   5.12287282534605882E+05   5.12328277401704690E+05   5.12369094707080454E+05   5.12409734286933555E+05
             5.12450187285264314E+05   5.12490448185848829E+05   5.12530523865788418E+05   5.12570436668271141E+05   5.12610333276956459E+05
             5.12650031115846825E+05   5.12689435608203115E+05   5.12728538643449545E+05   5.12767472111745097E+05   5.12806325169207703E+05
             5.12845110400733247E+05   5.12883754144997511E+05   5.12922022231666080E+05   5.12966766660163004E+05   5.13013310457721178E+05
             5.13061507493074343E+05   5.13111103068574623E+05   5.13161673571992724E+05   5.13212805352227995E+05   5.13264216720503930E+05
             5.13315757918045565E+05   5.13367332723065454E+05   5.13418814927749161E+05   5.13470079157526139E+05   5.13521013877918769E+05
             5.13571518230516929E+05   5.13621501002661942E+05   5.13670890766968252E+05   5.13719637586504512E+05   5.13767693214376806E+05
             5.13815006458371354E+05   5.13861535237457021E+05   5.13907252935116994E+05   5.13952147259767866E+05   5.13996218470804510E+05
             5.14039467936191126E+05   5.14081895331909065E+05   5.14123498028390284E+05   5.14164263803614129E+05   5.14204152518046438E+05
             5.14243118303076539E+05   5.14281176083657891E+05   5.14318372806718049E+05   5.14354860446892446E+05   5.14391396411846275E+05
             5.14428673512566194E+05   5.14466675805023813E+05   5.14504987681487750E+05   5.14543588050692226E+05   5.14582466465060133E+05
             5.14621428686432831E+05   5.14660150106253976E+05   5.14698261966050719E+05   5.14735510094123660E+05   5.14771628103031835E+05
             5.14805939757161483E+05   5.14845528007448360E+05   5.14884411132409296E+05   5.14921041572972899E+05   5.14954511945057486E+05
             5.14984519266040938E+05   5.15018585102390964E+05
 ETA=   19   0.00000000000000000E+00   0.00000000000000000E+00   0.00000000000000000E+00   0.00000000000000000E+00   0.00000000000000000E+00
             0.00000000000000000E+00   0.00000000000000000E+00   0.00000000000000000E+00   0.00000000000000000E+00   0.00000000000000000E+00
             0.00000000000000000E+00   0.00000000000000000E+00   0.00000000000000000E+00   0.00000000000000000E+00   0.00000000000000000E+00
             0.00000000000000000E+00   0.00000000000000000E+00   0.00000000000000000E+00   0.00000000000000000E+00   0.00000000000000000E+00
             0.00000000000000000E+00   0.00000000000000000E+00   0.00000000000000000E+00   5.09139901013545576E+05   5.09193147903840465E+05
             5.09246711379098822E+05   5.09299358441813907E+05   5.09352048481472011E+05   5.09404690255714813E+05   5.09457298617677763E+05
             5.09509923140632978E+05   5.09562609251087881E+05   5.09615387558315299E+05   5.09668280182577204E+05   5.09721310069265252E+05
             5.09774503292984213E+05   5.09827889533116075E+05   5.09881497807983949E+05   5.09935302795538038E+05   5.09989483033305558E+05
             5.10043913119427103E+05   5.10098607412533020E+05   5.10153521259428002E+05   5.10208585539673397E+05   5.10263720995146723E+05
             5.10318842154211598E+05   5.10373860331098200E+05   5.10428682946891873E+05   5.10483216257342778E+05   5.10537366603818315E+05
             5.10591043702679221E+05   5.10644162152155361E+05   5.10696644586327544E+05   5.10748434654503071E+05   5.10799512073888793E+05
             5.10849878178827406E+05   5.10899538388727175E+05   5.10948522944231925E+05   5.10996908481121471E+05   5.11044787093697116E+05
             5.11092225978161325E+05   5.11139271119378682E+05   5.11185963380671979E+05   5.11232343583452923E+05   5.11278452037346200E+05
[...]
             1.65833850567155925E+05   1.65871965163260349E+05   1.65909648966216395E+05   1.65946934897201281E+05   1.65983856973301212E+05
             1.66020450327464932E+05   1.66056750216688233E+05   1.66092790590626944E+05   1.66128602634409530E+05   1.66164213150666765E+05
             1.66199643169857562E+05   1.66234906845393940E+05   1.66270010766395164E+05   1.66304953879964916E+05   1.66339727548016992E+05
             1.66374314959566051E+05   1.66408689731030317E+05   1.66442816514488222E+05   1.66476659687913401E+05   1.66510199620342813E+05
             1.66543443750363454E+05   1.66576421826935577E+05   1.66609174636273237E+05   1.66641745999858715E+05   1.66674180179571908E+05
             1.66706520298954332E+05   1.66738806154274527E+05   1.66771069765375549E+05   1.66803329215314268E+05   1.66835584566697013E+05
             1.66867823251775728E+05   1.66900034856752318E+05   1.66932221329608379E+05   1.66964392223788454E+05   1.66996547078965203E+05
             1.67028609240788908E+05   1.67060565896541346E+05   1.67092465157960716E+05   1.67124420916397648E+05   1.67156568871688098E+05
             1.67189101086464536E+05   1.67222329406259261E+05   1.67256809959995502E+05   1.67294725438082096E+05   1.67333445404218859E+05
             1.67373062672470114E+05   1.67413401536759920E+05   1.67454134914913331E+05   1.67494987784549012E+05   1.67535793376846384E+05
             1.67576456760359462E+05   1.67616926823632413E+05   1.67657163353847543E+05   1.67697137695258309E+05   1.67736829888478765E+05
             1.67776225557657337E+05   1.67815312361409568E+05   1.67854076457235409E+05   1.67892498774129373E+05   1.67930551474161650E+05
             1.67968198199513485E+05   1.68005396064820467E+05   1.68042096161702269E+05   1.68078244287292677E+05   1.68113784647490247E+05
             1.68148664092588151E+05   1.68182839468172402E+05   1.68216284722704964E+05   1.68248995504370483E+05   1.68280987649938237E+05
             1.68312298454512609E+05   1.68342998328415852E+05   1.68373191800505127E+05   1.68403087002017041E+05   1.68433068909710128E+05
             1.68463053237814544E+05   1.68492968159000797E+05   1.68522845450686378E+05   1.68552877968817891E+05   1.68583081906048901E+05
             1.68613305989596149E+05   1.68643407563545508E+05   1.68673317597601679E+05   1.68703174673000700E+05   1.68733286932261690E+05
             1.68764185386871628E+05   1.68798047390948079E+05   1.68832311116543686E+05   1.68866722400671366E+05   1.68900719769596821E+05
             1.68935255955161236E+05   1.68971781612430816E+05
 ETA=   18   0.00000000000000000E+00   0.00000000000000000E+00   0.00000000000000000E+00   0.00000000000000000E+00   0.00000000000000000E+00
             0.00000000000000000E+00   0.00000000000000000E+00   0.00000000000000000E+00   0.00000000000000000E+00   0.00000000000000000E+00
             0.00000000000000000E+00   0.00000000000000000E+00   0.00000000000000000E+00   0.00000000000000000E+00   1.63972795136287808E+05
             1.64006358722921606E+05   1.64042370106185117E+05   1.64079938097644917E+05   1.64118822687703505E+05   1.64158869713852735E+05
             1.64199826015335449E+05   1.64241444286031823E+05   1.64283494809398049E+05   1.64325717926212121E+05   1.64367595210633270E+05
             1.64409045515455451E+05   1.64450091077188379E+05   1.64491357612486667E+05   1.64532769489897648E+05   1.64574296938415879E+05
             1.64615942927697208E+05   1.64657709159872989E+05   1.64699590789960814E+05   1.64741582734183990E+05   1.64783685141734284E+05
             1.64825904628003598E+05   1.64868254262651870E+05   1.64910751806309534E+05   1.64953416202650551E+05   1.64996317853024259E+05
             1.65039410342960793E+05   1.65082722740039084E+05   1.65126243468303321E+05   1.65169945036849909E+05   1.65213790785797115E+05
             1.65257737057584716E+05   1.65301734179918829E+05   1.65345725494492537E+05   1.65389647622743418E+05   1.65433429812309681E+05
             1.65476994177872577E+05   1.65520256782430282E+05   1.65563133951188094E+05   1.65605553569712880E+05   1.65647459999970626E+05
             1.65688805187875842E+05   1.65729550253682275E+05   1.65769687951781991E+05   1.65809252520245878E+05   1.65848296305466210E+05
             1.65886864832882653E+05   1.65924994847168593E+05   1.65962719732287253E+05   1.66000072209554259E+05   1.66037085403455014E+05
             1.66073792945401306E+05   1.66110228354900872E+05   1.66146423389206204E+05   1.66182406704295572E+05   1.66218202121319133E+05
             1.66253827248496353E+05   1.66289292410266935E+05   1.66324600025268708E+05   1.66359744796432322E+05   1.66394714078216581E+05
             1.66429488110757957E+05   1.66464039959298738E+05   1.66498336075706466E+05   1.66532343497529015E+05   1.66566044765999512E+05
             1.66599447902263957E+05   1.66632578559805901E+05   1.66665470694030897E+05   1.66698161550742661E+05   1.66730690727350215E+05
             1.66763097388719325E+05   1.66795418087408412E+05   1.66827682902331726E+05   1.66859910746151785E+05   1.66892105324555043E+05
             1.66924259014458192E+05   1.66956366739682708E+05   1.66988437158135814E+05   1.67020494834439596E+05   1.67052591652604984E+05
             1.67084546926886542E+05   1.67116356648469460E+05   1.67148079782774905E+05   1.67179834014372551E+05   1.67211700012466608E+05
             1.67243802963787253E+05   1.67276387815265480E+05   1.67309907249340293E+05   1.67348815144142951E+05   1.67387866314283980E+05
             1.67427585020586324E+05   1.67468011535475875E+05   1.67508872882254451E+05   1.67549909500529408E+05   1.67590962607472815E+05
             1.67631905907586770E+05   1.67672651271794457E+05   1.67713138389645523E+05   1.67753332814865658E+05   1.67793213203339605E+05
             1.67832767259169690E+05   1.67871989518457180E+05   1.67910872626975150E+05   1.67949396504603123E+05   1.67987530886188091E+05
             1.68025241608379962E+05   1.68062491949121671E+05   1.68099240300152829E+05   1.68135437873828254E+05   1.68171030136749352E+05
             1.68205961707039125E+05   1.68240183245119173E+05   1.68273654756876233E+05   1.68306352187042445E+05   1.68338277681912936E+05
             1.68369460773996019E+05   1.68399954443828057E+05   1.68429867456644977E+05   1.68459593700555299E+05   1.68489859367192345E+05
             1.68520225330609421E+05   1.68550308040180156E+05   1.68580143090328696E+05   1.68610115263773769E+05   1.68640339716399001E+05
             1.68670556466794747E+05   1.68700541903475329E+05   1.68730214548468590E+05   1.68759587652272457E+05   1.68788751107409480E+05
             1.68817910726065631E+05   1.68851855829331063E+05   1.68884658942263748E+05   1.68916485745096055E+05   1.68947490536339348E+05
             1.68978582453938492E+05   1.69015663728642627E+05
 ETA=   19   0.00000000000000000E+00   0.00000000000000000E+00   0.00000000000000000E+00   0.00000000000000000E+00   0.00000000000000000E+00
             0.00000000000000000E+00   0.00000000000000000E+00   0.00000000000000000E+00   0.00000000000000000E+00   0.00000000000000000E+00
             0.00000000000000000E+00   0.00000000000000000E+00   0.00000000000000000E+00   0.00000000000000000E+00   0.00000000000000000E+00
             0.00000000000000000E+00   0.00000000000000000E+00   0.00000000000000000E+00   0.00000000000000000E+00   0.00000000000000000E+00
             0.00000000000000000E+00   0.00000000000000000E+00   0.00000000000000000E+00   1.64382226700157800E+05   1.64424302001187956E+05
             1.64465492814205441E+05   1.64505833576887555E+05   1.64546550980403961E+05   1.64587574860148801E+05   1.64628872404945141E+05
             1.64670394007718365E+05   1.64712102579089726E+05   1.64753969938232098E+05   1.64795978161782725E+05   1.64838121486127930E+05
             1.64880403620502359E+05   1.64922835724614968E+05   1.64965432755355228E+05   1.65008196343497169E+05   1.65051246489496843E+05
             1.65094465214133816E+05   1.65137898900730070E+05   1.65181526168857497E+05   1.65225310988507874E+05   1.65269211210740585E+05
             1.65313178572907025E+05   1.65357159842872730E+05   1.65401095562358649E+05   1.65444921456954035E+05   1.65488567950617376E+05
             1.65531961143786495E+05   1.65575023262112372E+05   1.65617677732777433E+05   1.65659862235614884E+05   1.65701536290770746E+05
             1.65742665960470360E+05   1.65783219853051647E+05   1.65823196837993397E+05   1.65862638856097095E+05   1.65901599559442286E+05
             1.65940117735493375E+05   1.65978225024990068E+05   1.66015954062532866E+05   1.66053337820864021E+05   1.66090408876415080E+05
             1.66127199661605962E+05   1.66163742538632796E+05   1.66200067479436228E+05   1.66236201051951095E+05   1.66272164528781024E+05
             1.66307972491820779E+05   1.66343631779677904E+05   1.66379140910484100E+05   1.66414490557054785E+05   1.66449664090517967E+05
             1.66484638539684674E+05   1.66519385842863761E+05   1.66553872658862034E+05   1.66588065800669545E+05   1.66621947989955981E+05
             1.66655529162862280E+05   1.66688832887194556E+05   1.66721887703530927E+05   1.66754724893348757E+05   1.66787380346761405E+05
             1.66819889814229624E+05   1.66852287098881265E+05   1.66884600326687039E+05   1.66916848548085662E+05   1.66949036342213949E+05
             1.66981155460352165E+05   1.67013199043969857E+05   1.67045174523860915E+05   1.67077114744286082E+05   1.67109240879050340E+05
             1.67141110752497276E+05   1.67172799456564302E+05   1.67204439033007278E+05   1.67236139185546141E+05   1.67267865378169285E+05
             1.67299628811502538E+05   1.67331520262667822E+05   1.67363707739549951E+05   1.67403042721372360E+05   1.67442322085840657E+05
             1.67482182565247203E+05   1.67522732006511214E+05   1.67563675793640024E+05   1.67604812716633664E+05   1.67646091286544746E+05
             1.67687334773646115E+05   1.67728357072363957E+05   1.67769078489624750E+05   1.67809471578363009E+05   1.67849514214806084E+05
             1.67889194834930357E+05   1.67928529384381342E+05   1.67967533468344482E+05   1.68006175361885253E+05   1.68044409268354648E+05
             1.68082207189793087E+05   1.68119545909651468E+05   1.68156395789491275E+05   1.68192715766401263E+05   1.68228441226869298E+05
             1.68263505821607687E+05   0.00000000000000000E+00   0.00000000000000000E+00   0.00000000000000000E+00   0.00000000000000000E+00
             0.00000000000000000E+00   1.68457309748851490E+05   1.68486452764860645E+05   1.68515386562800093E+05   1.68547068664023886E+05
             1.68578635356717947E+05   1.68608720230544743E+05   1.68638043510917691E+05   1.68667671734897798E+05   1.68698048021714872E+05
             1.68728438312014710E+05   1.68758385246027290E+05   1.68788078006748809E+05   1.68817511322669103E+05   1.68846110257741850E+05
             1.68872770748535346E+05   1.68906332731760194E+05   1.68937025049885910E+05   1.68965685231201060E+05   1.68992230163523403E+05
             1.69017163555257925E+05   1.69051858578969201E+05
 ETA=   20   0.00000000000000000E+00   0.00000000000000000E+00   0.00000000000000000E+00   0.00000000000000000E+00   0.00000000000000000E+00
             0.00000000000000000E+00   0.00000000000000000E+00   0.00000000000000000E+00   0.00000000000000000E+00   0.00000000000000000E+00
             0.00000000000000000E+00   0.00000000000000000E+00   0.00000000000000000E+00   0.00000000000000000E+00   0.00000000000000000E+00
             0.00000000000000000E+00   0.00000000000000000E+00   0.00000000000000000E+00   0.00000000000000000E+00   0.00000000000000000E+00
             0.00000000000000000E+00   0.00000000000000000E+00   0.00000000000000000E+00   0.00000000000000000E+00   0.00000000000000000E+00
             1.64518813847834739E+05   1.64559568100277480E+05   1.64600582044365612E+05   1.64641715912357904E+05   1.64683059083767119E+05
             1.64724615528069087E+05   1.64766364885244810E+05   1.64808282086788240E+05   1.64850349647409195E+05   1.64892562944765232E+05
             1.64934926722115459E+05   1.64977452778561565E+05   1.65020155451478262E+05   1.65063011066816689E+05   1.65106207611646736E+05
             1.65149552581627155E+05   1.65193108276033920E+05   1.65236847825725417E+05   1.65280726800634526E+05   1.65324696965863986E+05
             1.65368704739576962E+05   1.65412692785806954E+05   1.65456598274941323E+05   1.65500355436135520E+05   1.65543895208360307E+05
             1.65587146812200372E+05   1.65630037362081435E+05   1.65672495320933114E+05   1.65714465051461390E+05   1.65755919719789148E+05
             1.65796839250440040E+05   1.65837197900016530E+05   1.65876998268927971E+05   1.65916291257395264E+05   1.65955136588991241E+05
             1.65993570595970901E+05   1.66031621381143166E+05   1.66069321168038121E+05   1.66106703574042214E+05   1.66143800754911063E+05
             1.66180643997068779E+05   1.66217264729782270E+05   1.66253691631125432E+05   1.66289949501187890E+05   1.66326057651241455E+05
             1.66362028190119687E+05   1.66397865253698052E+05   1.66433564126063691E+05   1.66469112124693784E+05   1.66504489114382275E+05
             1.66539669153413648E+05   1.66574622842011100E+05   1.66609316322394501E+05   1.66643713694503822E+05   1.66677795499930420E+05
             1.66711572671643633E+05   1.66745067770717957E+05   1.66778305715195427E+05   1.66811312209718424E+05   1.66844120206237974E+05
             1.66876762102838489E+05   1.66909269723165780E+05   1.66941669347704708E+05   1.66973980776682234E+05   1.67006208599562844E+05
             1.67038341488639242E+05   1.67070364943518682E+05   1.67102267679626326E+05   1.67134024334488291E+05   1.67166223686284415E+05
             1.67197906922814465E+05   1.67229353695388680E+05   1.67261067008228390E+05   1.67292996508148673E+05   1.67324709369156713E+05
             1.67356090139245964E+05   1.67387049503409566E+05   0.00000000000000000E+00   0.00000000000000000E+00   0.00000000000000000E+00
             0.00000000000000000E+00   0.00000000000000000E+00   0.00000000000000000E+00   0.00000000000000000E+00   0.00000000000000000E+00
             0.00000000000000000E+00   0.00000000000000000E+00   0.00000000000000000E+00   0.00000000000000000E+00   0.00000000000000000E+00
             0.00000000000000000E+00   0.00000000000000000E+00   0.00000000000000000E+00   0.00000000000000000E+00   0.00000000000000000E+00
             0.00000000000000000E+00   0.00000000000000000E+00   0.00000000000000000E+00   0.00000000000000000E+00   0.00000000000000000E+00
             0.00000000000000000E+00   0.00000000000000000E+00   0.00000000000000000E+00   0.00000000000000000E+00   0.00000000000000000E+00
             0.00000000000000000E+00   0.00000000000000000E+00   0.00000000000000000E+00   0.00000000000000000E+00   0.00000000000000000E+00
             0.00000000000000000E+00   0.00000000000000000E+00   0.00000000000000000E+00   0.00000000000000000E+00   0.00000000000000000E+00
             0.00000000000000000E+00   0.00000000000000000E+00   0.00000000000000000E+00   0.00000000000000000E+00   0.00000000000000000E+00
             0.00000000000000000E+00   1.68957327965796198E+05   1.68988447139071854E+05   1.69017532093977148E+05   1.69041878803072468E+05
             1.69060524659117043E+05   0.00000000000000000E+00
 ETA=   21   0.00000000000000000E+00   0.00000000000000000E+00   0.00000000000000000E+00   0.00000000000000000E+00   0.00000000000000000E+00
             0.00000000000000000E+00   0.00000000000000000E+00   0.00000000000000000E+00   0.00000000000000000E+00   0.00000000000000000E+00
             0.00000000000000000E+00   0.00000000000000000E+00   0.00000000000000000E+00   0.00000000000000000E+00   0.00000000000000000E+00
             0.00000000000000000E+00   0.00000000000000000E+00   0.00000000000000000E+00   0.00000000000000000E+00   0.00000000000000000E+00
             0.00000000000000000E+00   0.00000000000000000E+00   0.00000000000000000E+00   0.00000000000000000E+00   0.00000000000000000E+00
             0.00000000000000000E+00   0.00000000000000000E+00   1.64652982774703938E+05   1.64694589710196102E+05   1.64736307117814868E+05
             1.64778157819416985E+05   1.64820146402603161E+05   1.64862267019668652E+05   1.64904514591758634E+05   1.64946892914958647E+05
             1.64989413694123126E+05   1.65032093547621480E+05   1.65074948260096164E+05   0.00000000000000000E+00   1.65161277075749298E+05
             1.65204775235399866E+05   1.65248480892126827E+05   1.65292362262563605E+05   1.65336368278029142E+05   1.65380443932751834E+05
             1.65424528793958743E+05   1.65468560096217785E+05   1.65512470319911576E+05   1.65556190988223621E+05   1.65599651928536943E+05
             1.65642784516050568E+05   1.65685520342793257E+05   1.65727792645062582E+05   1.65769549720850599E+05   1.65810775017318811E+05
             1.65851462926946610E+05   1.65891598489520286E+05   1.65931187524435314E+05   1.65970287035752728E+05   1.66008966086601635E+05
             1.66047265441698488E+05   1.66085212507733377E+05   1.66122838549045875E+05   0.00000000000000000E+00   1.66197263039782702E+05
             1.66234122943692928E+05   1.66270789081746887E+05   1.66307289564433362E+05   1.66343645822880673E+05   1.66379877293001104E+05
             1.66415994089501910E+05   1.66451998062163097E+05   1.66487881799391034E+05   1.66523629626004753E+05   1.66559219119467947E+05
             1.66594619778688037E+05   1.66629800901818642E+05   1.66664727666515857E+05   1.66699361716334039E+05   1.66733678757012443E+05
             1.66767688676459540E+05   1.66801412273026333E+05   1.66834873495717969E+05   1.66868092783511878E+05   1.66901100605030486E+05
             1.66933924917074299E+05   1.66966595428245841E+05   1.66999136170674843E+05   1.67031568370391004E+05   1.67063896716744086E+05
             1.67096108928475762E+05   1.67128186963294487E+05   0.00000000000000000E+00   0.00000000000000000E+00   0.00000000000000000E+00
             0.00000000000000000E+00   0.00000000000000000E+00   0.00000000000000000E+00   0.00000000000000000E+00   0.00000000000000000E+00
             0.00000000000000000E+00   0.00000000000000000E+00   0.00000000000000000E+00   0.00000000000000000E+00   0.00000000000000000E+00
             0.00000000000000000E+00   0.00000000000000000E+00   0.00000000000000000E+00   0.00000000000000000E+00   0.00000000000000000E+00
             0.00000000000000000E+00   0.00000000000000000E+00   0.00000000000000000E+00   0.00000000000000000E+00   0.00000000000000000E+00
             0.00000000000000000E+00   0.00000000000000000E+00   0.00000000000000000E+00   0.00000000000000000E+00   0.00000000000000000E+00
             0.00000000000000000E+00   0.00000000000000000E+00   0.00000000000000000E+00   0.00000000000000000E+00   0.00000000000000000E+00
             0.00000000000000000E+00   0.00000000000000000E+00   0.00000000000000000E+00   0.00000000000000000E+00   0.00000000000000000E+00
             0.00000000000000000E+00   0.00000000000000000E+00   0.00000000000000000E+00   0.00000000000000000E+00   0.00000000000000000E+00
             0.00000000000000000E+00   0.00000000000000000E+00   0.00000000000000000E+00   0.00000000000000000E+00   0.00000000000000000E+00
             0.00000000000000000E+00   0.00000000000000000E+00   0.00000000000000000E+00   0.00000000000000000E+00   0.00000000000000000E+00
             0.00000000000000000E+00   0.00000000000000000E+00   0.00000000000000000E+00   0.00000000000000000E+00   0.00000000000000000E+00
             0.00000000000000000E+00   0.00000000000000000E+00
