Ident  = #Delft3D-FLOW 3.59.01.57433#
Commnt =                  
Runtxt = #Lake Hallwil#
         #Developed for the Alplakes project#
Filcco = #hallwil_grid.grd#
Anglat =  4.7280000e+001
Grdang =  0.0000000e+000
Filgrd = #hallwil_grid_enclosure.enc#
MNKmax = 29 143 77
Thick  = 2.3432410000e+00
         2.3636360000e+00
         2.3636360000e+00
         2.3636360000e+00
         2.3636360000e+00
         2.3636360000e+00
         2.3636360000e+00
         2.3636360000e+00
         2.3636360000e+00
         2.3636360000e+00
         2.3636360000e+00
         2.3636360000e+00
         2.3636360000e+00
         2.3636360000e+00
         2.1427830000e+00
         2.0407460000e+00
         1.9435670000e+00
         1.8510170000e+00
         1.7628730000e+00
         1.6789270000e+00
         1.5989780000e+00
         1.5228360000e+00
         1.4503200000e+00
         1.3812570000e+00
         1.3154830000e+00
         1.2528410000e+00
         1.1931820000e+00
         1.1363640000e+00
         1.1363640000e+00
         1.1363640000e+00
         1.1363640000e+00
         1.1363640000e+00
         1.1363640000e+00
         1.1363640000e+00
         1.1363640000e+00
         1.1363640000e+00
         1.1363640000e+00
         1.1363640000e+00
         1.1363640000e+00
         1.1363640000e+00
         1.1363640000e+00
         1.1363640000e+00
         1.1363640000e+00
         1.1363640000e+00
         1.1363640000e+00
         1.1363640000e+00
         1.1363640000e+00
         1.1363640000e+00
         1.1363640000e+00
         1.1363640000e+00
         1.1363640000e+00
         1.1363640000e+00
         1.0713920000e+00
         1.0203730000e+00
         9.7178400000e-01
         9.2550800000e-01
         8.8143600000e-01
         8.3946300000e-01
         7.9948900000e-01
         7.6141800000e-01
         7.2516000000e-01
         6.9062900000e-01
         6.5774100000e-01
         6.2642000000e-01
         5.9659100000e-01
         5.6818200000e-01
         5.6818200000e-01
         5.6818200000e-01
         5.6818200000e-01
         5.6818200000e-01
         5.6818200000e-01
         5.6818200000e-01
         5.6818200000e-01
         5.6818200000e-01
         5.6818200000e-01
         5.6818200000e-01
         5.6818200000e-01
Commnt =                  
Fildep = #hallwil_depths.dep#
Commnt =                  
Commnt =                 no. dry points: 0
Commnt =                 no. thin dams: 0
Commnt =                  
Itdate = #2008-03-01#
Tunit  = #M#
Tstart =  1.23090e+05
Tstop  =  3.25950e+05
Dt     = 1
Tzone  = 0
Commnt =                  
Sub1   = # TW #
Sub2   = #   #
Commnt =                  
Wnsvwp = #Y#
Wndint = #Y#
Commnt =                  
Zeta0  =  0.0000000e+000
T0     = 5.0929084384e+00
         5.1175882965e+00
         5.1494973825e+00
         5.1814064685e+00
         5.2210874060e+00
         5.2636328540e+00
         5.3061783020e+00
         5.3487237500e+00
         5.3905711391e+00
         5.4097165907e+00
         5.4288620423e+00
         5.4480074939e+00
         5.4671529455e+00
         5.4939964380e+00
         5.5345542090e+00
         5.5722059700e+00
         5.6080647870e+00
         5.6422160430e+00
         5.6747410530e+00
         5.7044313903e+00
         5.7324574781e+00
         5.7591489878e+00
         5.7845694716e+00
         5.8087794549e+00
         5.8318365820e+00
         5.8537957521e+00
         5.8712392760e+00
         5.8764807545e+00
         5.8815943925e+00
         5.8867080305e+00
         5.8918216685e+00
         5.8969353065e+00
         5.9020489445e+00
         5.9071625825e+00
         5.9122762205e+00
         5.9173898585e+00
         5.9290125874e+00
         5.9474216842e+00
         5.9658307810e+00
         5.9842398778e+00
         6.0026489746e+00
         6.0112286746e+00
         6.0132741298e+00
         6.0153195850e+00
         6.0173650402e+00
         6.0194104954e+00
         6.0243678518e+00
         6.0305042174e+00
         6.0366405830e+00
         6.0427769486e+00
         6.0489133142e+00
         6.1156458374e+00
         6.1931380730e+00
         6.2665590245e+00
         6.3364837352e+00
         6.4030786844e+00
         6.4447568444e+00
         6.4555985081e+00
         6.4659239057e+00
         6.4757576198e+00
         6.4851230612e+00
         6.4940425319e+00
         6.5025372629e+00
         6.5110457953e+00
         6.5238874108e+00
         6.5361175273e+00
         6.5480493493e+00
         6.5599811713e+00
         6.5719129933e+00
         6.5800000000e+00
         6.5800000000e+00
         6.5800000000e+00
         6.5800000000e+00
         6.5800000000e+00
         6.5800000000e+00
         6.5800000000e+00
         6.5800000000e+00
Commnt =                  
Commnt =                 no. open boundaries: 0
Commnt =                  
Ag     =  9.8100000e+000
Rhow   =  1.0000000e+003
Tempw  =  1.5000000e+001
Salw   =  2.0000000e-001
Wstres =  1.1016064e-03 5.0000000e-01 2.5036509e-04 4.5000000e+00 5.0073018e-04 1.0000000e+01
Rhoa   =  1.0000000e+000
Equili = #N#
Tkemod = #K-epsilon   #
Ktemp  = 5
Temint = #Y#
Commnt =                  
Roumet = #C#
Ccofu  =  6.0000000e+001
Ccofv  =  6.0000000e+001
Xlo    =  4.3228422e-04
cFrCon =  6.3200824e-02
Vicouv =  1.0000000e-001
Dicouv =  1.0000000e-001
Htur2d = #N#
Vicoww =  1.0000000e-006
Dicoww =  1.0000000e-009
Irov   = 0
Commnt =                  
Iter   =      2
Dryflp = #YES#
Dpsopt = #MAX#
Dpuopt = #MIN#
Dryflc =  1.0000000e-001
Dco    = -9.9900000e+002
Forfuv = #Y#
Forfww = #Y#
Sigcor = #N#
Trasol = #Cyclic-method#
Momsol = #Cyclic#
Commnt =                  
Commnt =                 no. discharges: 0
Commnt =                 no. observation points: 1
Filsta = #hallwil_observation_points.obs#
Commnt =                 no. drogues: 0
Commnt =                  
Commnt =                  
Commnt =                 no. cross sections: 0
Commnt =                  
SMhydr = #YYYYY#     
SMderv = #YYYYYY#    
SMproc = #YYYYYYYYYY#
PMhydr = #YYYYYY#    
PMderv = #YYY#       
PMproc = #YYYYYYYYYY#
SHhydr = #YYYY#      
SHderv = #YYYYY#     
SHproc = #YYYYYYYYYY#
SHflux = #YYYY#      
PHhydr = #YYYYYY#    
PHderv = #YYY#       
PHproc = #YYYYYYYYYY#
PHflux = #YYYY#      
Flmap  =  7.4908800e+006 180  7.4988000e+006
Flhis  =  7.4908800e+006 180  7.4988000e+006
Flpp   =  0.00000e+00  0.00000e+00  0.00000e+00
Flrst  = 10080
Commnt =                  
Online = #N#
Zmodel = #Y#
Zbot   = -44
Ztop   = +1
AirOut = #Y#
HeaOut = #Y#
Filscc = #Secchi.scc#
Filwp  = #Pressure.amp#
Filwu  = #WindU.amu#
Filwv  = #WindV.amv#
Filws  = #ShortwaveFlux.ams#
Filwt  = #Temperature.amt#
Filwr  = #RelativeHumidity.amr#
Filwc  = #CloudCoverage.amc#
Anglon = 8.21
Wslake = 1
sdlake = 1
Commnt =                  
ncFormat = 4
FlNcdf = #map#